data_image0
_chemical_formula_structural       WS2WS2WS2WS2WS2WS2WS2WS2WS2WS2WS2WS2WS2WS2WS2WS2WS2WS2WS2WS2WS2WS2WS2WS2WS2WS2WS2WS2WS2WS2WS2WS2WS2WS2WS2WS2WS2WS2WS2WS2WS2WS2WS2WS2WS2WS2WS2WS2WS2WS2WS2WS2WS2WS2WS2WS2WS2WS2WS2WS2WS2WS2WS2WS2WS2WS2WS2WS2WS2WS2WS2WS2WS2WS2WS2WS2WS2WS2WS2WS2WS2WS2WS2WS2WS2WS2WS2WS2WS2WS2WS2WS2WS2WS2WS2WS2WS2WS2WS2WS2WS2WS2WS2WS2WS2WS2WS2WS2WS2WS2WS2WS2WS2WS2WS2WS2WS2WS2WS2WS2WS2WS2WS2WS2WS2WS2WS2WS2WS2WS2WS2WS2WS2WS2WS2WS2WS2WS2WS2WS2WS2WS2WS2WS2WS2WS2WS2WS2WS2WS2WS2WS2WS2WS2WS2WS2WS2WS2WS2WS2WS2WS2WS2WS2WS2WS2WS2WS2WS2WS2WS2WS2WS2WS2WS2WS2WS2WS2WS2WS2WS2WS2WS2WS2WS2WS2WS2WS2WS2WS2WS2WS2WS2WS2WS2WS2WS2WS2WS2WS2WS2WS2WS2WS2WS2WS2WS2WS2WS2WS4WS2WS2WS2WS2WS2WS2WS2WS2WS2WS2WS2WS2WS2WS2WS2WS2WS2WS2WS2WS2WS2WS2WS2WS2WS2WS2WS2WS2WS2WS2WS2WS2WS2WS2WS2WS2WS2WS2WS2WS2WS2WS2WS2WS2WS2WS2WS2WS2WS2WS2WS2WS2WS2WS2WS2WS2WS2WS2WS2WS2WS2WS2WS2WS2WS2WS2WS2WS2WS2WS2WS2WS2WS2WS2WS2WS2WS2WS2WS2WS2WS2WS2WS2WS2WS2WS2WS2WS2WS2WS2WS2WS2WS2WS2WS2WS2WS2WS2WS2WS2WS2WS2WS2WS2WS2WS2WS2WS2WS2WS2WS2WS2WS2WS2WS2WS2WS2WS2WS2WS2WS2WS2WS2WS2WS2WS2WS2WS2WS2WS2WS2WS2WS2WS2WS2WS2WS2WS2WS2WS2WS2WS2WS2WS2WS2WS2WS2WS2WS2WS2WS2WS2WS2WS2WS2WS2WS2WS2WS2WS2WS2WS2WS2WS2WS2WS2WS2WS2WS2WS2WS2WS2WS2WS2WS2WS2WS2WS2WS2WS2WS2WS2WS2WS2WS2WS2WS2WS2WS2
_chemical_formula_sum              "W399 S800"
_cell_length_a       63.06
_cell_length_b       63.06
_cell_length_c       20.0
_cell_angle_alpha    90.0
_cell_angle_beta     90.0
_cell_angle_gamma    120.00000000000001

_space_group_name_H-M_alt    "P 1"
_space_group_IT_number       1

loop_
  _space_group_symop_operation_xyz
  'x, y, z'

loop_
  _atom_site_type_symbol
  _atom_site_label
  _atom_site_symmetry_multiplicity
  _atom_site_fract_x
  _atom_site_fract_y
  _atom_site_fract_z
  _atom_site_occupancy
  W   W1        1.0  0.985322770121982  0.0  0.0  1.0000
  S   S1        1.0  0.01869228932479628  0.016666666666666666  0.07940000000000001  1.0000
  S   S2        1.0  0.01869228932479628  0.016666666666666666  -0.07940000000000001  1.0000
  W   W2        1.0  0.9852551951952242  0.05  0.0  1.0000
  S   S3        1.0  0.018602904323458718  0.06666666666666667  0.07940000000000001  1.0000
  S   S4        1.0  0.018602904323458718  0.06666666666666667  -0.07940000000000001  1.0000
  W   W3        1.0  0.9852308249205423  0.1  0.0  1.0000
  S   S5        1.0  0.018566548966781875  0.11666666666666667  0.07940000000000001  1.0000
  S   S6        1.0  0.018566548966781875  0.11666666666666667  -0.07940000000000001  1.0000
  W   W4        1.0  0.9852286493106729  0.15  0.0  1.0000
  S   S7        1.0  0.01856216915531503  0.16666666666666666  0.07940000000000001  1.0000
  S   S8        1.0  0.01856216915531503  0.16666666666666666  -0.07940000000000001  1.0000
  W   W5        1.0  0.9852121493753964  0.2  0.0  1.0000
  S   S9        1.0  0.018548103560656212  0.21666666666666667  0.07940000000000001  1.0000
  S   S10       1.0  0.018548103560656212  0.21666666666666667  -0.07940000000000001  1.0000
  W   W6        1.0  0.9851349770326128  0.25  0.0  1.0000
  S   S11       1.0  0.01846831036594605  0.26666666666666666  0.07940000000000001  1.0000
  S   S12       1.0  0.01846831036594605  0.26666666666666666  -0.07940000000000001  1.0000
  W   W7        1.0  0.9849530974904266  0.3  0.0  1.0000
  S   S13       1.0  0.01826855113372945  0.3166666666666666  0.07940000000000001  1.0000
  S   S14       1.0  0.01826855113372945  0.3166666666666666  -0.07940000000000001  1.0000
  W   W8        1.0  0.9846383808479908  0.35000000000000003  0.0  1.0000
  S   S15       1.0  0.01791535077919661  0.36666666666666664  0.07940000000000001  1.0000
  S   S16       1.0  0.01791535077919661  0.36666666666666664  -0.07940000000000001  1.0000
  W   W9        1.0  0.9841865133781195  0.4  0.0  1.0000
  S   S17       1.0  0.017406577715002366  0.41666666666666663  0.07940000000000001  1.0000
  S   S18       1.0  0.017406577715002366  0.41666666666666663  -0.07940000000000001  1.0000
  W   W10       1.0  0.9836155945351275  0.44999999999999996  0.0  1.0000
  S   S19       1.0  0.01676825795179181  0.4666666666666666  0.07940000000000001  1.0000
  S   S20       1.0  0.01676825795179181  0.4666666666666666  -0.07940000000000001  1.0000
  W   W11       1.0  0.03295774715459478  0.5  0.0  1.0000
  S   S21       1.0  0.0660420028587762  0.5166666666666666  0.07940000000000001  1.0000
  S   S22       1.0  0.0660420028587762  0.5166666666666666  -0.07940000000000001  1.0000
  W   W12       1.0  0.03224911693246882  0.5499999999999999  0.0  1.0000
  S   S23       1.0  0.06527154335052145  0.5666666666666667  0.07940000000000001  1.0000
  S   S24       1.0  0.06527154335052145  0.5666666666666667  -0.07940000000000001  1.0000
  W   W13       1.0  0.03152240496311516  0.6  0.0  1.0000
  S   S25       1.0  0.06449390375336089  0.6166666666666667  0.07940000000000001  1.0000
  S   S26       1.0  0.06449390375336089  0.6166666666666667  -0.07940000000000001  1.0000
  W   W14       1.0  0.03080318093327118  0.6499999999999999  0.0  1.0000
  S   S27       1.0  0.06373602575608316  0.6666666666666666  0.07940000000000001  1.0000
  S   S28       1.0  0.06373602575608316  0.6666666666666666  -0.07940000000000001  1.0000
  W   W15       1.0  0.030109208070311654  0.7000000000000001  0.0  1.0000
  S   S29       1.0  0.06301507977019272  0.7166666666666668  0.07940000000000001  1.0000
  S   S30       1.0  0.06301507977019272  0.7166666666666668  -0.07940000000000001  1.0000
  W   W16       1.0  0.029451436200410325  0.75  0.0  1.0000
  S   S31       1.0  0.06234042378744026  0.7666666666666667  0.07940000000000001  1.0000
  S   S32       1.0  0.06234042378744026  0.7666666666666667  -0.07940000000000001  1.0000
  W   W17       1.0  0.028835583925206718  0.8  0.0  1.0000
  S   S33       1.0  0.06171586514764463  0.8166666666666667  0.07940000000000001  1.0000
  S   S34       1.0  0.06171586514764463  0.8166666666666667  -0.07940000000000001  1.0000
  W   W18       1.0  0.028263694782085506  0.85  0.0  1.0000
  S   S35       1.0  0.06114160292212742  0.8666666666666667  0.07940000000000001  1.0000
  S   S36       1.0  0.06114160292212742  0.8666666666666667  -0.07940000000000001  1.0000
  W   W19       1.0  0.02773541321299696  0.8999999999999999  0.0  1.0000
  S   S37       1.0  0.06061567940638406  0.9166666666666666  0.07940000000000001  1.0000
  S   S38       1.0  0.06061567940638406  0.9166666666666666  -0.07940000000000001  1.0000
  W   W20       1.0  0.027248930897779983  0.9500000000000001  0.0  1.0000
  S   S39       1.0  0.0601349770326128  0.9666666666666668  0.07940000000000001  1.0000
  S   S40       1.0  0.0601349770326128  0.9666666666666668  -0.07940000000000001  1.0000
  W   W21       1.0  0.03545593087693701  0.0  0.0  1.0000
  S   S41       1.0  0.06886609550079775  0.016666666666666666  0.07940000000000001  1.0000
  S   S42       1.0  0.06886609550079775  0.016666666666666666  -0.07940000000000001  1.0000
  W   W22       1.0  0.035322770121982025  0.05  0.0  1.0000
  S   S43       1.0  0.06869706109700796  0.06666666666666667  0.07940000000000001  1.0000
  S   S44       1.0  0.06869706109700796  0.06666666666666667  -0.07940000000000001  1.0000
  W   W23       1.0  0.03525059953535517  0.1  0.0  1.0000
  S   S45       1.0  0.06859819460035174  0.11666666666666667  0.07940000000000001  1.0000
  S   S46       1.0  0.06859819460035174  0.11666666666666667  -0.07940000000000001  1.0000
  W   W24       1.0  0.03522948167083128  0.15  0.0  1.0000
  S   S47       1.0  0.0685641582538756  0.16666666666666666  0.07940000000000001  1.0000
  S   S48       1.0  0.0685641582538756  0.16666666666666666  -0.07940000000000001  1.0000
  W   W25       1.0  0.0352269222340525  0.2  0.0  1.0000
  S   S49       1.0  0.06856123171706069  0.21666666666666667  0.07940000000000001  1.0000
  S   S50       1.0  0.06856123171706069  0.21666666666666667  -0.07940000000000001  1.0000
  W   W26       1.0  0.03518817616446938  0.25  0.0  1.0000
  S   S51       1.0  0.06852456836279414  0.26666666666666666  0.07940000000000001  1.0000
  S   S52       1.0  0.06852456836279414  0.26666666666666666  -0.07940000000000001  1.0000
  W   W27       1.0  0.03504916418290941  0.3  0.0  1.0000
  S   S53       1.0  0.06837403765339133  0.3166666666666666  0.07940000000000001  1.0000
  S   S54       1.0  0.06837403765339133  0.3166666666666666  -0.07940000000000001  1.0000
  W   W28       1.0  0.03475882657565174  0.35000000000000003  0.0  1.0000
  S   S55       1.0  0.06804585040566877  0.36666666666666664  0.07940000000000001  1.0000
  S   S56       1.0  0.06804585040566877  0.36666666666666664  -0.07940000000000001  1.0000
  W   W29       1.0  0.03429814523445068  0.4  0.0  1.0000
  S   S57       1.0  0.0675198467114528  0.41666666666666663  0.07940000000000001  1.0000
  S   S58       1.0  0.0675198467114528  0.41666666666666663  -0.07940000000000001  1.0000
  W   W30       1.0  0.03368397915118833  0.44999999999999996  0.0  1.0000
  S   S59       1.0  0.06682315562412401  0.4666666666666666  0.07940000000000001  1.0000
  S   S60       1.0  0.06682315562412401  0.4666666666666666  -0.07940000000000001  1.0000
  W   W31       1.0  0.08295774715459478  0.5  0.0  1.0000
  S   S61       1.0  0.11601175714805631  0.5166666666666666  0.07940000000000001  1.0000
  S   S62       1.0  0.11601175714805631  0.5166666666666666  -0.07940000000000001  1.0000
  W   W32       1.0  0.08216872811766769  0.5499999999999999  0.0  1.0000
  S   S63       1.0  0.11514677804777668  0.5666666666666667  0.07940000000000001  1.0000
  S   S64       1.0  0.11514677804777668  0.5666666666666667  -0.07940000000000001  1.0000
  W   W33       1.0  0.08136118619239145  0.6  0.0  1.0000
  S   S65       1.0  0.11427880010198968  0.6166666666666667  0.07940000000000001  1.0000
  S   S66       1.0  0.11427880010198968  0.6166666666666667  -0.07940000000000001  1.0000
  W   W34       1.0  0.08056838437832345  0.6499999999999999  0.0  1.0000
  S   S67       1.0  0.11344254140364497  0.6666666666666666  0.07940000000000001  1.0000
  S   S68       1.0  0.11344254140364497  0.6666666666666666  -0.07940000000000001  1.0000
  W   W35       1.0  0.07981195351306995  0.7000000000000001  0.0  1.0000
  S   S69       1.0  0.11265813626566103  0.7166666666666668  0.07940000000000001  1.0000
  S   S70       1.0  0.11265813626566103  0.7166666666666668  -0.07940000000000001  1.0000
  W   W36       1.0  0.07910392170439974  0.75  0.0  1.0000
  S   S71       1.0  0.11193486386591762  0.7666666666666667  0.07940000000000001  1.0000
  S   S72       1.0  0.11193486386591762  0.7666666666666667  -0.07940000000000001  1.0000
  W   W37       1.0  0.0784494240331015  0.8  0.0  1.0000
  S   S73       1.0  0.11127491830335173  0.8166666666666667  0.07940000000000001  1.0000
  S   S74       1.0  0.11127491830335173  0.8166666666666667  -0.07940000000000001  1.0000
  W   W38       1.0  0.07784911696724958  0.85  0.0  1.0000
  S   S75       1.0  0.11067633434123546  0.8666666666666667  0.07940000000000001  1.0000
  S   S76       1.0  0.11067633434123546  0.8666666666666667  -0.07940000000000001  1.0000
  W   W39       1.0  0.07730099691439335  0.8999999999999999  0.0  1.0000
  S   S77       1.0  0.11013497703261273  0.9166666666666666  0.07940000000000001  1.0000
  S   S78       1.0  0.11013497703261273  0.9166666666666666  -0.07940000000000001  1.0000
  W   W40       1.0  0.07680164369927939  0.9500000000000001  0.0  1.0000
  S   S79       1.0  0.1096457848859169  0.9666666666666668  0.07940000000000001  1.0000
  S   S80       1.0  0.1096457848859169  0.9666666666666668  -0.07940000000000001  1.0000
  W   W41       1.0  0.08569892057894302  0.0  0.0  1.0000
  S   S81       1.0  0.11917556585148535  0.016666666666666666  0.07940000000000001  1.0000
  S   S82       1.0  0.11917556585148535  0.016666666666666666  -0.07940000000000001  1.0000
  W   W42       1.0  0.08547669838485471  0.05  0.0  1.0000
  S   S83       1.0  0.11890361064653761  0.06666666666666667  0.07940000000000001  1.0000
  S   S84       1.0  0.11890361064653761  0.06666666666666667  -0.07940000000000001  1.0000
  W   W43       1.0  0.08532277012198203  0.1  0.0  1.0000
  S   S85       1.0  0.11870326622721648  0.11666666666666667  0.07940000000000001  1.0000
  S   S86       1.0  0.11870326622721648  0.11666666666666667  -0.07940000000000001  1.0000
  W   W44       1.0  0.08524559777919842  0.15  0.0  1.0000
  S   S87       1.0  0.11859269597545384  0.16666666666666666  0.07940000000000001  1.0000
  S   S88       1.0  0.11859269597545384  0.16666666666666666  -0.07940000000000001  1.0000
  W   W45       1.0  0.08522891133261308  0.2  0.0  1.0000
  S   S89       1.0  0.11856263705345328  0.21666666666666667  0.07940000000000001  1.0000
  S   S90       1.0  0.11856263705345328  0.21666666666666667  -0.07940000000000001  1.0000
  W   W46       1.0  0.08522008122068002  0.25  0.0  1.0000
  S   S91       1.0  0.11855596957156689  0.26666666666666666  0.07940000000000001  1.0000
  S   S92       1.0  0.11855596957156689  0.26666666666666666  -0.07940000000000001  1.0000
  W   W47       1.0  0.08513497703261273  0.3  0.0  1.0000
  S   S93       1.0  0.11846831036594604  0.3166666666666666  0.07940000000000001  1.0000
  S   S94       1.0  0.11846831036594604  0.3166666666666666  -0.07940000000000001  1.0000
  W   W48       1.0  0.08488746984139046  0.35000000000000003  0.0  1.0000
  S   S95       1.0  0.11818812501948825  0.36666666666666664  0.07940000000000001  1.0000
  S   S96       1.0  0.11818812501948825  0.36666666666666664  -0.07940000000000001  1.0000
  W   W49       1.0  0.08442890833610515  0.4  0.0  1.0000
  S   S97       1.0  0.11765599145396412  0.41666666666666663  0.07940000000000001  1.0000
  S   S98       1.0  0.11765599145396412  0.41666666666666663  -0.07940000000000001  1.0000
  W   W50       1.0  0.08376786989319628  0.44999999999999996  0.0  1.0000
  S   S99       1.0  0.11689217358634331  0.4666666666666666  0.07940000000000001  1.0000
  S   S100      1.0  0.11689217358634331  0.4666666666666666  -0.07940000000000001  1.0000
  W   W51       1.0  0.1329577471545948  0.5  0.0  1.0000
  S   S101      1.0  0.1659731659637256  0.5166666666666666  0.07940000000000001  1.0000
  S   S102      1.0  0.1659731659637256  0.5166666666666666  -0.07940000000000001  1.0000
  W   W52       1.0  0.13206799980550957  0.5499999999999999  0.0  1.0000
  S   S103      1.0  0.16498795377619838  0.5666666666666667  0.07940000000000001  1.0000
  S   S104      1.0  0.16498795377619838  0.5666666666666667  -0.07940000000000001  1.0000
  W   W53       1.0  0.13116057042002757  0.6  0.0  1.0000
  S   S105      1.0  0.16400805622234466  0.6166666666666667  0.07940000000000001  1.0000
  S   S106      1.0  0.16400805622234466  0.6166666666666667  -0.07940000000000001  1.0000
  W   W54       1.0  0.13027963302379644  0.6499999999999999  0.0  1.0000
  S   S107      1.0  0.16307880177794667  0.6666666666666666  0.07940000000000001  1.0000
  S   S108      1.0  0.16307880177794667  0.6666666666666666  -0.07940000000000001  1.0000
  W   W55       1.0  0.12945143620041033  0.7000000000000001  0.0  1.0000
  S   S109      1.0  0.16222309733346496  0.7166666666666668  0.07940000000000001  1.0000
  S   S110      1.0  0.16222309733346496  0.7166666666666668  -0.07940000000000001  1.0000
  W   W56       1.0  0.1286884713962264  0.75  0.0  1.0000
  S   S111      1.0  0.1614486826951175  0.7666666666666667  0.07940000000000001  1.0000
  S   S112      1.0  0.1614486826951175  0.7666666666666667  -0.07940000000000001  1.0000
  W   W57       1.0  0.12799419097810377  0.8  0.0  1.0000
  S   S113      1.0  0.16075448360006817  0.8166666666666667  0.07940000000000001  1.0000
  S   S114      1.0  0.16075448360006817  0.8166666666666667  -0.07940000000000001  1.0000
  W   W58       1.0  0.1273667663451483  0.85  0.0  1.0000
  S   S115      1.0  0.16013497703261276  0.8666666666666667  0.07940000000000001  1.0000
  S   S116      1.0  0.16013497703261276  0.8666666666666667  -0.07940000000000001  1.0000
  W   W59       1.0  0.12680164369927943  0.8999999999999999  0.0  1.0000
  S   S117      1.0  0.15958282711934996  0.9166666666666666  0.07940000000000001  1.0000
  S   S118      1.0  0.15958282711934996  0.9166666666666666  -0.07940000000000001  1.0000
  W   W60       1.0  0.12629312257269704  0.9500000000000001  0.0  1.0000
  S   S119      1.0  0.1590903364273915  0.9666666666666668  0.07940000000000001  1.0000
  S   S120      1.0  0.1590903364273915  0.9666666666666668  -0.07940000000000001  1.0000
  W   W61       1.0  0.13609682502561413  0.0  0.0  1.0000
  S   S121      1.0  0.16966998780600276  0.016666666666666666  0.07940000000000001  1.0000
  S   S122      1.0  0.16966998780600276  0.016666666666666666  -0.07940000000000001  1.0000
  W   W62       1.0  0.13577237560990565  0.05  0.0  1.0000
  S   S123      1.0  0.16928857682416593  0.06666666666666667  0.07940000000000001  1.0000
  S   S124      1.0  0.16928857682416593  0.06666666666666667  -0.07940000000000001  1.0000
  W   W63       1.0  0.1355046496641682  0.1  0.0  1.0000
  S   S125      1.0  0.16895576959371647  0.11666666666666667  0.07940000000000001  1.0000
  S   S126      1.0  0.16895576959371647  0.11666666666666667  -0.07940000000000001  1.0000
  W   W64       1.0  0.13532277012198202  0.15  0.0  1.0000
  S   S127      1.0  0.16871165505541236  0.16666666666666666  0.07940000000000001  1.0000
  S   S128      1.0  0.16871165505541236  0.16666666666666666  -0.07940000000000001  1.0000
  W   W65       1.0  0.13524031532636754  0.2  0.0  1.0000
  S   S129      1.0  0.16858628433198067  0.21666666666666667  0.07940000000000001  1.0000
  S   S130      1.0  0.16858628433198067  0.21666666666666667  -0.07940000000000001  1.0000
  W   W66       1.0  0.13522883582198167  0.25  0.0  1.0000
  S   S131      1.0  0.1685622076372626  0.26666666666666666  0.07940000000000001  1.0000
  S   S132      1.0  0.1685622076372626  0.26666666666666666  -0.07940000000000001  1.0000
  W   W67       1.0  0.13519838451247426  0.3  0.0  1.0000
  S   S133      1.0  0.16853588529270383  0.3166666666666666  0.07940000000000001  1.0000
  S   S134      1.0  0.16853588529270383  0.3166666666666666  -0.07940000000000001  1.0000
  W   W68       1.0  0.13501780099089583  0.35000000000000003  0.0  1.0000
  S   S135      1.0  0.16833514961099105  0.36666666666666664  0.07940000000000001  1.0000
  S   S136      1.0  0.16833514961099105  0.36666666666666664  -0.07940000000000001  1.0000
  W   W69       1.0  0.13458201744586332  0.4  0.0  1.0000
  S   S137      1.0  0.16782065233902624  0.41666666666666663  0.07940000000000001  1.0000
  S   S138      1.0  0.16782065233902624  0.41666666666666663  -0.07940000000000001  1.0000
  W   W70       1.0  0.13387298944313195  0.44999999999999996  0.0  1.0000
  S   S139      1.0  0.1669814578756119  0.4666666666666666  0.07940000000000001  1.0000
  S   S140      1.0  0.1669814578756119  0.4666666666666666  -0.07940000000000001  1.0000
  W   W71       1.0  0.18295774715459476  0.5  0.0  1.0000
  S   S141      1.0  0.2159222317557604  0.5166666666666666  0.07940000000000001  1.0000
  S   S142      1.0  0.2159222317557604  0.5166666666666666  -0.07940000000000001  1.0000
  W   W72       1.0  0.1819382100171881  0.5499999999999999  0.0  1.0000
  S   S143      1.0  0.21477930716703902  0.5666666666666667  0.07940000000000001  1.0000
  S   S144      1.0  0.21477930716703902  0.5666666666666667  -0.07940000000000001  1.0000
  W   W73       1.0  0.18090471500119307  0.6  0.0  1.0000
  S   S145      1.0  0.21365817896695563  0.6166666666666667  0.07940000000000001  1.0000
  S   S146      1.0  0.21365817896695563  0.6166666666666667  -0.07940000000000001  1.0000
  W   W74       1.0  0.17991724527655273  0.6499999999999999  0.0  1.0000
  S   S147      1.0  0.21261850181139674  0.6666666666666666  0.07940000000000001  1.0000
  S   S148      1.0  0.21261850181139674  0.6666666666666666  -0.07940000000000001  1.0000
  W   W75       1.0  0.1790070904541069  0.7000000000000001  0.0  1.0000
  S   S149      1.0  0.21168439693238578  0.7166666666666668  0.07940000000000001  1.0000
  S   S150      1.0  0.21168439693238578  0.7166666666666668  -0.07940000000000001  1.0000
  W   W76       1.0  0.1781855862059417  0.75  0.0  1.0000
  S   S151      1.0  0.21085895513987737  0.7666666666666667  0.07940000000000001  1.0000
  S   S152      1.0  0.21085895513987737  0.7666666666666667  -0.07940000000000001  1.0000
  W   W77       1.0  0.1774524598503107  0.8  0.0  1.0000
  S   S153      1.0  0.21013497703261272  0.8166666666666667  0.07940000000000001  1.0000
  S   S154      1.0  0.21013497703261272  0.8166666666666667  -0.07940000000000001  1.0000
  W   W78       1.0  0.1768016436992794  0.85  0.0  1.0000
  S   S155      1.0  0.20950129395597455  0.8666666666666667  0.07940000000000001  1.0000
  S   S156      1.0  0.20950129395597455  0.8666666666666667  -0.07940000000000001  1.0000
  W   W79       1.0  0.17622474923809306  0.8999999999999999  0.0  1.0000
  S   S157      1.0  0.20894601473217395  0.9166666666666666  0.07940000000000001  1.0000
  S   S158      1.0  0.20894601473217395  0.9166666666666666  -0.07940000000000001  1.0000
  W   W80       1.0  0.17571293858076728  0.9500000000000001  0.0  1.0000
  S   S159      1.0  0.20845799805301285  0.9666666666666668  0.07940000000000001  1.0000
  S   S160      1.0  0.20845799805301285  0.9666666666666668  -0.07940000000000001  1.0000
  W   W81       1.0  0.18668987726139846  0.0  0.0  1.0000
  S   S161      1.0  0.22038689956835264  0.016666666666666666  0.07940000000000001  1.0000
  S   S162      1.0  0.22038689956835264  0.016666666666666666  -0.07940000000000001  1.0000
  W   W82       1.0  0.18627123377647528  0.05  0.0  1.0000
  S   S163      1.0  0.21991809104479615  0.06666666666666667  0.07940000000000001  1.0000
  S   S164      1.0  0.21991809104479615  0.06666666666666667  -0.07940000000000001  1.0000
  W   W83       1.0  0.18587572970873142  0.1  0.0  1.0000
  S   S165      1.0  0.21945164183565738  0.11666666666666667  0.07940000000000001  1.0000
  S   S166      1.0  0.21945164183565738  0.11666666666666667  -0.07940000000000001  1.0000
  W   W84       1.0  0.18554402283308363  0.15  0.0  1.0000
  S   S167      1.0  0.21903225391227632  0.16666666666666666  0.07940000000000001  1.0000
  S   S168      1.0  0.21903225391227632  0.16666666666666666  -0.07940000000000001  1.0000
  W   W85       1.0  0.18532277012198203  0.2  0.0  1.0000
  S   S169      1.0  0.21872360287144177  0.21666666666666667  0.07940000000000001  1.0000
  S   S170      1.0  0.21872360287144177  0.21666666666666667  -0.07940000000000001  1.0000
  W   W86       1.0  0.18523511091636116  0.25  0.0  1.0000
  S   S171      1.0  0.21857893111253174  0.26666666666666666  0.07940000000000001  1.0000
  S   S172      1.0  0.21857893111253174  0.26666666666666666  -0.07940000000000001  1.0000
  W   W87       1.0  0.18522692223405246  0.3  0.0  1.0000
  S   S173      1.0  0.21856159881709677  0.3166666666666666  0.07940000000000001  1.0000
  S   S174      1.0  0.21856159881709677  0.3166666666666666  -0.07940000000000001  1.0000
  W   W88       1.0  0.18513497703261275  0.35000000000000003  0.0  1.0000
  S   S175      1.0  0.21846831036594605  0.36666666666666664  0.07940000000000001  1.0000
  S   S176      1.0  0.21846831036594605  0.36666666666666664  -0.07940000000000001  1.0000
  W   W89       1.0  0.18475882657565176  0.4  0.0  1.0000
  S   S177      1.0  0.2180187048780224  0.41666666666666663  0.07940000000000001  1.0000
  S   S178      1.0  0.2180187048780224  0.41666666666666663  -0.07940000000000001  1.0000
  W   W90       1.0  0.18400803706440044  0.44999999999999996  0.0  1.0000
  S   S179      1.0  0.2171012032265296  0.4666666666666666  0.07940000000000001  1.0000
  S   S180      1.0  0.2171012032265296  0.4666666666666666  -0.07940000000000001  1.0000
  W   W91       1.0  0.23295774715459477  0.5  0.0  1.0000
  S   S181      1.0  0.2658519280453508  0.5166666666666666  0.07940000000000001  1.0000
  S   S182      1.0  0.2658519280453508  0.5166666666666666  -0.07940000000000001  1.0000
  W   W92       1.0  0.23176490903508334  0.5499999999999999  0.0  1.0000
  S   S183      1.0  0.2644939037533609  0.5666666666666667  0.07940000000000001  1.0000
  S   S184      1.0  0.2644939037533609  0.5666666666666667  -0.07940000000000001  1.0000
  W   W93       1.0  0.23056838437832347  0.6  0.0  1.0000
  S   S185      1.0  0.2631912304315253  0.6166666666666667  0.07940000000000001  1.0000
  S   S186      1.0  0.2631912304315253  0.6166666666666667  -0.07940000000000001  1.0000
  W   W94       1.0  0.22945143620041034  0.6499999999999999  0.0  1.0000
  S   S187      1.0  0.2620218047295597  0.6666666666666666  0.07940000000000001  1.0000
  S   S188      1.0  0.2620218047295597  0.6666666666666666  -0.07940000000000001  1.0000
  W   W95       1.0  0.22844942403310142  0.7000000000000001  0.0  1.0000
  S   S189      1.0  0.26100569826436687  0.7166666666666668  0.07940000000000001  1.0000
  S   S190      1.0  0.26100569826436687  0.7166666666666668  -0.07940000000000001  1.0000
  W   W96       1.0  0.22756872528284272  0.75  0.0  1.0000
  S   S191      1.0  0.26013497703261274  0.7666666666666667  0.07940000000000001  1.0000
  S   S192      1.0  0.26013497703261274  0.7666666666666667  -0.07940000000000001  1.0000
  W   W97       1.0  0.22680164369927946  0.8  0.0  1.0000
  S   S193      1.0  0.2593915581749704  0.8166666666666667  0.07940000000000001  1.0000
  S   S194      1.0  0.2593915581749704  0.8166666666666667  -0.07940000000000001  1.0000
  W   W98       1.0  0.2261351626916446  0.85  0.0  1.0000
  S   S195      1.0  0.25875568554191075  0.8666666666666667  0.07940000000000001  1.0000
  S   S196      1.0  0.25875568554191075  0.8666666666666667  -0.07940000000000001  1.0000
  W   W99       1.0  0.22555532785859975  0.8999999999999999  0.0  1.0000
  S   S197      1.0  0.2582092944304706  0.9166666666666666  0.07940000000000001  1.0000
  S   S198      1.0  0.2582092944304706  0.9166666666666666  -0.07940000000000001  1.0000
  W   W100      1.0  0.22504915616605475  0.9500000000000001  0.0  1.0000
  S   S199      1.0  0.2577370041369483  0.9666666666666668  0.07940000000000001  1.0000
  S   S200      1.0  0.2577370041369483  0.9666666666666668  -0.07940000000000001  1.0000
  W   W101      1.0  0.2375  0.0  0.0  1.0000
  S   S201      1.0  0.2713363387605504  0.016666666666666666  0.07940000000000001  1.0000
  S   S202      1.0  0.2713363387605504  0.016666666666666666  -0.07940000000000001  1.0000
  W   W102      1.0  0.2370228225361363  0.05  0.0  1.0000
  S   S203      1.0  0.2708333333333333  0.06666666666666667  0.07940000000000001  1.0000
  S   S204      1.0  0.2708333333333333  0.06666666666666667  -0.07940000000000001  1.0000
  W   W103      1.0  0.23652167929458023  0.1  0.0  1.0000
  S   S205      1.0  0.2702800663063211  0.11666666666666667  0.07940000000000001  1.0000
  S   S206      1.0  0.2702800663063211  0.11666666666666667  -0.07940000000000001  1.0000
  W   W104      1.0  0.23602883881848963  0.15  0.0  1.0000
  S   S207      1.0  0.26970033045780545  0.16666666666666666  0.07940000000000001  1.0000
  S   S208      1.0  0.26970033045780545  0.16666666666666666  -0.07940000000000001  1.0000
  W   W105      1.0  0.23560295546843982  0.2  0.0  1.0000
  S   S209      1.0  0.26915269963993727  0.21666666666666667  0.07940000000000001  1.0000
  S   S210      1.0  0.26915269963993727  0.21666666666666667  -0.07940000000000001  1.0000
  W   W106      1.0  0.23532277012198202  0.25  0.0  1.0000
  S   S211      1.0  0.26874191630501865  0.26666666666666666  0.07940000000000001  1.0000
  S   S212      1.0  0.26874191630501865  0.26666666666666666  -0.07940000000000001  1.0000
  W   W107      1.0  0.2352308249205423  0.3  0.0  1.0000
  S   S213      1.0  0.2685709992672481  0.3166666666666666  0.07940000000000001  1.0000
  S   S214      1.0  0.2685709992672481  0.3166666666666666  -0.07940000000000001  1.0000
  W   W108      1.0  0.23521214937539633  0.35000000000000003  0.0  1.0000
  S   S215      1.0  0.2685507651615605  0.36666666666666664  0.07940000000000001  1.0000
  S   S216      1.0  0.2685507651615605  0.36666666666666664  -0.07940000000000001  1.0000
  W   W109      1.0  0.2349530974904266  0.4  0.0  1.0000
  S   S217      1.0  0.26824705765484447  0.41666666666666663  0.07940000000000001  1.0000
  S   S218      1.0  0.26824705765484447  0.41666666666666663  -0.07940000000000001  1.0000
  W   W110      1.0  0.2341865133781195  0.44999999999999996  0.0  1.0000
  S   S219      1.0  0.2672694011933478  0.4666666666666666  0.07940000000000001  1.0000
  S   S220      1.0  0.2672694011933478  0.4666666666666666  -0.07940000000000001  1.0000
  W   W111      1.0  0.28295774715459476  0.5  0.0  1.0000
  S   S221      1.0  0.3157486755883709  0.5166666666666666  0.07940000000000001  1.0000
  S   S222      1.0  0.3157486755883709  0.5166666666666666  -0.07940000000000001  1.0000
  W   W112      1.0  0.28152240496311515  0.5499999999999999  0.0  1.0000
  S   S223      1.0  0.3140820577004187  0.5666666666666667  0.07940000000000001  1.0000
  S   S224      1.0  0.3140820577004187  0.5666666666666667  -0.07940000000000001  1.0000
  W   W113      1.0  0.28010920807031164  0.6  0.0  1.0000
  S   S225      1.0  0.31254276464649805  0.6166666666666667  0.07940000000000001  1.0000
  S   S226      1.0  0.31254276464649805  0.6166666666666667  -0.07940000000000001  1.0000
  W   W114      1.0  0.2788355839252066  0.6499999999999999  0.0  1.0000
  S   S227      1.0  0.31122673822798097  0.6666666666666666  0.07940000000000001  1.0000
  S   S228      1.0  0.31122673822798097  0.6666666666666666  -0.07940000000000001  1.0000
  W   W115      1.0  0.27773541321299694  0.7000000000000001  0.0  1.0000
  S   S229      1.0  0.3101349770326128  0.7166666666666668  0.07940000000000001  1.0000
  S   S230      1.0  0.3101349770326128  0.7166666666666668  -0.07940000000000001  1.0000
  W   W116      1.0  0.2768016436992794  0.75  0.0  1.0000
  S   S231      1.0  0.30923596996974045  0.7666666666666667  0.07940000000000001  1.0000
  S   S232      1.0  0.30923596996974045  0.7666666666666667  -0.07940000000000001  1.0000
  W   W117      1.0  0.2760127001729837  0.8  0.0  1.0000
  S   S233      1.0  0.3084933824553734  0.8166666666666667  0.07940000000000001  1.0000
  S   S234      1.0  0.3084933824553734  0.8166666666666667  -0.07940000000000001  1.0000
  W   W118      1.0  0.2753446943379878  0.85  0.0  1.0000
  S   S235      1.0  0.30787524397363436  0.8666666666666667  0.07940000000000001  1.0000
  S   S236      1.0  0.30787524397363436  0.8666666666666667  -0.07940000000000001  1.0000
  W   W119      1.0  0.2747760180868453  0.8999999999999999  0.0  1.0000
  S   S237      1.0  0.30735580448627997  0.9166666666666666  0.07940000000000001  1.0000
  S   S238      1.0  0.30735580448627997  0.9166666666666666  -0.07940000000000001  1.0000
  W   W120      1.0  0.2742885644450307  0.9500000000000001  0.0  1.0000
  S   S239      1.0  0.30691499329469424  0.9666666666666668  0.07940000000000001  1.0000
  S   S240      1.0  0.30691499329469424  0.9666666666666668  -0.07940000000000001  1.0000
  W   W121      1.0  0.28851953713740663  0.0  0.0  1.0000
  S   S241      1.0  0.3224917460799589  0.016666666666666666  0.07940000000000001  1.0000
  S   S242      1.0  0.3224917460799589  0.016666666666666666  -0.07940000000000001  1.0000
  W   W122      1.0  0.2880424048995571  0.05  0.0  1.0000
  S   S243      1.0  0.32202617145284473  0.06666666666666667  0.07940000000000001  1.0000
  S   S244      1.0  0.32202617145284473  0.06666666666666667  -0.07940000000000001  1.0000
  W   W123      1.0  0.2875  0.1  0.0  1.0000
  S   S245      1.0  0.32147634938840486  0.11666666666666667  0.07940000000000001  1.0000
  S   S246      1.0  0.32147634938840486  0.11666666666666667  -0.07940000000000001  1.0000
  W   W124      1.0  0.28689890690158476  0.15  0.0  1.0000
  S   S247      1.0  0.3208333333333333  0.16666666666666666  0.07940000000000001  1.0000
  S   S248      1.0  0.3208333333333333  0.16666666666666666  -0.07940000000000001  1.0000
  W   W125      1.0  0.28627123377647523  0.2  0.0  1.0000
  S   S249      1.0  0.32010710133673975  0.21666666666666667  0.07940000000000001  1.0000
  S   S250      1.0  0.32010710133673975  0.21666666666666667  -0.07940000000000001  1.0000
  W   W126      1.0  0.28569892057894297  0.25  0.0  1.0000
  S   S251      1.0  0.31936217215182294  0.26666666666666666  0.07940000000000001  1.0000
  S   S252      1.0  0.31936217215182294  0.26666666666666666  -0.07940000000000001  1.0000
  W   W127      1.0  0.285322770121982  0.3  0.0  1.0000
  S   S253      1.0  0.31877327949703216  0.3166666666666666  0.07940000000000001  1.0000
  S   S254      1.0  0.31877327949703216  0.3166666666666666  -0.07940000000000001  1.0000
  W   W128      1.0  0.2852289113326131  0.35000000000000003  0.0  1.0000
  S   S255      1.0  0.3185641582538755  0.36666666666666664  0.07940000000000001  1.0000
  S   S256      1.0  0.3185641582538755  0.36666666666666664  -0.07940000000000001  1.0000
  W   W129      1.0  0.28513497703261276  0.4  0.0  1.0000
  S   S257      1.0  0.31846831036594603  0.41666666666666663  0.07940000000000001  1.0000
  S   S258      1.0  0.31846831036594603  0.41666666666666663  -0.07940000000000001  1.0000
  W   W130      1.0  0.2844289083361051  0.44999999999999996  0.0  1.0000
  S   S259      1.0  0.3175198467114527  0.4666666666666666  0.07940000000000001  1.0000
  S   S260      1.0  0.3175198467114527  0.4666666666666666  -0.07940000000000001  1.0000
  W   W131      1.0  0.33295774715459475  0.5  0.0  1.0000
  S   S261      1.0  0.36558245026580205  0.5166666666666666  0.07940000000000001  1.0000
  S   S262      1.0  0.36558245026580205  0.5166666666666666  -0.07940000000000001  1.0000
  W   W132      1.0  0.33116057042002756  0.5499999999999999  0.0  1.0000
  S   S263      1.0  0.36344254140364496  0.5666666666666667  0.07940000000000001  1.0000
  S   S264      1.0  0.36344254140364496  0.5666666666666667  -0.07940000000000001  1.0000
  W   W133      1.0  0.3294514362004103  0.6  0.0  1.0000
  S   S265      1.0  0.36159702811541883  0.6166666666666667  0.07940000000000001  1.0000
  S   S266      1.0  0.36159702811541883  0.6166666666666667  -0.07940000000000001  1.0000
  W   W134      1.0  0.3279941909781037  0.6499999999999999  0.0  1.0000
  S   S267      1.0  0.3601349770326127  0.6666666666666666  0.07940000000000001  1.0000
  S   S268      1.0  0.3601349770326127  0.6666666666666666  -0.07940000000000001  1.0000
  W   W135      1.0  0.3268016436992794  0.7000000000000001  0.0  1.0000
  S   S269      1.0  0.3589983413232149  0.7166666666666668  0.07940000000000001  1.0000
  S   S270      1.0  0.3589983413232149  0.7166666666666668  -0.07940000000000001  1.0000
  W   W136      1.0  0.32583526046771516  0.75  0.0  1.0000
  S   S271      1.0  0.35810935142017863  0.7666666666666667  0.07940000000000001  1.0000
  S   S272      1.0  0.35810935142017863  0.7666666666666667  -0.07940000000000001  1.0000
  W   W137      1.0  0.32504915616605484  0.8  0.0  1.0000
  S   S273      1.0  0.3574039186441812  0.8166666666666667  0.07940000000000001  1.0000
  S   S274      1.0  0.3574039186441812  0.8166666666666667  -0.07940000000000001  1.0000
  W   W138      1.0  0.32440367080361493  0.85  0.0  1.0000
  S   S275      1.0  0.35683483525050586  0.8666666666666667  0.07940000000000001  1.0000
  S   S276      1.0  0.35683483525050586  0.8666666666666667  -0.07940000000000001  1.0000
  W   W139      1.0  0.3238676459426272  0.8999999999999999  0.0  1.0000
  S   S277      1.0  0.35636831186420004  0.9166666666666666  0.07940000000000001  1.0000
  S   S278      1.0  0.35636831186420004  0.9166666666666666  -0.07940000000000001  1.0000
  W   W140      1.0  0.3234173796019082  0.9500000000000001  0.0  1.0000
  S   S279      1.0  0.3559801675535391  0.9666666666666668  0.07940000000000001  1.0000
  S   S280      1.0  0.3559801675535391  0.9666666666666668  -0.07940000000000001  1.0000
  W   W141      1.0  0.3397090227875094  0.0  0.0  1.0000
  S   S281      1.0  0.3737942253492307  0.016666666666666666  0.07940000000000001  1.0000
  S   S282      1.0  0.3737942253492307  0.016666666666666666  -0.07940000000000001  1.0000
  W   W142      1.0  0.3392971767345672  0.05  0.0  1.0000
  S   S283      1.0  0.37343326073592764  0.06666666666666667  0.07940000000000001  1.0000
  S   S284      1.0  0.37343326073592764  0.06666666666666667  -0.07940000000000001  1.0000
  W   W143      1.0  0.33880312671172974  0.1  0.0  1.0000
  S   S285      1.0  0.37298789955465694  0.11666666666666667  0.07940000000000001  1.0000
  S   S286      1.0  0.37298789955465694  0.11666666666666667  -0.07940000000000001  1.0000
  W   W144      1.0  0.338208630222126  0.15  0.0  1.0000
  S   S287      1.0  0.3724298942955367  0.16666666666666666  0.07940000000000001  1.0000
  S   S288      1.0  0.3724298942955367  0.16666666666666666  -0.07940000000000001  1.0000
  W   W145      1.0  0.33749999999999997  0.2  0.0  1.0000
  S   S289      1.0  0.3717230806824185  0.21666666666666667  0.07940000000000001  1.0000
  S   S290      1.0  0.3717230806824185  0.21666666666666667  -0.07940000000000001  1.0000
  W   W146      1.0  0.3366898772613985  0.25  0.0  1.0000
  S   S291      1.0  0.3708333333333333  0.26666666666666666  0.07940000000000001  1.0000
  S   S292      1.0  0.3708333333333333  0.26666666666666666  -0.07940000000000001  1.0000
  W   W147      1.0  0.3358757297087314  0.3  0.0  1.0000
  S   S293      1.0  0.3697830434235277  0.3166666666666666  0.07940000000000001  1.0000
  S   S294      1.0  0.3697830434235277  0.3166666666666666  -0.07940000000000001  1.0000
  W   W148      1.0  0.33532277012198203  0.35000000000000003  0.0  1.0000
  S   S295      1.0  0.3688379829975015  0.36666666666666664  0.07940000000000001  1.0000
  S   S296      1.0  0.3688379829975015  0.36666666666666664  -0.07940000000000001  1.0000
  W   W149      1.0  0.33522692223405254  0.4  0.0  1.0000
  S   S297      1.0  0.368562169155315  0.41666666666666663  0.07940000000000001  1.0000
  S   S298      1.0  0.368562169155315  0.41666666666666663  -0.07940000000000001  1.0000
  W   W150      1.0  0.33475882657565176  0.44999999999999996  0.0  1.0000
  S   S299      1.0  0.3679153507791966  0.4666666666666666  0.07940000000000001  1.0000
  S   S300      1.0  0.3679153507791966  0.4666666666666666  -0.07940000000000001  1.0000
  W   W151      1.0  0.38295774715459474  0.5  0.0  1.0000
  S   S301      1.0  0.4152715433505214  0.5166666666666666  0.07940000000000001  1.0000
  S   S302      1.0  0.4152715433505214  0.5166666666666666  -0.07940000000000001  1.0000
  W   W152      1.0  0.38056838437832347  0.5499999999999999  0.0  1.0000
  S   S303      1.0  0.41234042378744024  0.5666666666666667  0.07940000000000001  1.0000
  S   S304      1.0  0.41234042378744024  0.5666666666666667  -0.07940000000000001  1.0000
  W   W153      1.0  0.37844942403310144  0.6  0.0  1.0000
  S   S305      1.0  0.41013497703261276  0.6166666666666667  0.07940000000000001  1.0000
  S   S306      1.0  0.41013497703261276  0.6166666666666667  -0.07940000000000001  1.0000
  W   W154      1.0  0.37680164369927943  0.6499999999999999  0.0  1.0000
  S   S307      1.0  0.40859116827356085  0.6666666666666666  0.07940000000000001  1.0000
  S   S308      1.0  0.40859116827356085  0.6666666666666666  -0.07940000000000001  1.0000
  W   W155      1.0  0.37555532785859974  0.7000000000000001  0.0  1.0000
  S   S309      1.0  0.4074954103753898  0.7166666666666668  0.07940000000000001  1.0000
  S   S310      1.0  0.4074954103753898  0.7166666666666668  -0.07940000000000001  1.0000
  W   W156      1.0  0.3746053004701972  0.75  0.0  1.0000
  S   S311      1.0  0.40669228627187637  0.7666666666666667  0.07940000000000001  1.0000
  S   S312      1.0  0.40669228627187637  0.7666666666666667  -0.07940000000000001  1.0000
  W   W157      1.0  0.3738676459426273  0.8  0.0  1.0000
  S   S313      1.0  0.4060841896515564  0.8166666666666667  0.07940000000000001  1.0000
  S   S314      1.0  0.4060841896515564  0.8166666666666667  -0.07940000000000001  1.0000
  W   W158      1.0  0.3732831182154443  0.85  0.0  1.0000
  S   S315      1.0  0.4056103355758562  0.8666666666666667  0.07940000000000001  1.0000
  S   S316      1.0  0.4056103355758562  0.8666666666666667  -0.07940000000000001  1.0000
  W   W159      1.0  0.372810912934389  0.8999999999999999  0.0  1.0000
  S   S317      1.0  0.4052319342700413  0.9166666666666666  0.07940000000000001  1.0000
  S   S318      1.0  0.4052319342700413  0.9166666666666666  -0.07940000000000001  1.0000
  W   W160      1.0  0.3724227686237281  0.9500000000000001  0.0  1.0000
  S   S319      1.0  0.40492343454530094  0.9666666666666668  0.07940000000000001  1.0000
  S   S320      1.0  0.40492343454530094  0.9666666666666668  -0.07940000000000001  1.0000
  W   W161      1.0  0.3910063109541844  0.0  0.0  1.0000
  S   S321      1.0  0.4251685647523576  0.016666666666666666  0.07940000000000001  1.0000
  S   S322      1.0  0.4251685647523576  0.016666666666666666  -0.07940000000000001  1.0000
  W   W162      1.0  0.3907122787099814  0.05  0.0  1.0000
  S   S323      1.0  0.4249554965627214  0.06666666666666667  0.07940000000000001  1.0000
  S   S324      1.0  0.4249554965627214  0.06666666666666667  -0.07940000000000001  1.0000
  W   W163      1.0  0.39034853908428313  0.1  0.0  1.0000
  S   S325      1.0  0.4246871587835283  0.11666666666666667  0.07940000000000001  1.0000
  S   S326      1.0  0.4246871587835283  0.11666666666666667  -0.07940000000000001  1.0000
  W   W164      1.0  0.3898893627762713  0.15  0.0  1.0000
  S   S327      1.0  0.42433964428751775  0.16666666666666666  0.07940000000000001  1.0000
  S   S328      1.0  0.42433964428751775  0.16666666666666666  -0.07940000000000001  1.0000
  W   W165      1.0  0.3892971767345672  0.2  0.0  1.0000
  S   S329      1.0  0.4238738352113753  0.21666666666666667  0.07940000000000001  1.0000
  S   S330      1.0  0.4238738352113753  0.21666666666666667  -0.07940000000000001  1.0000
  W   W166      1.0  0.38851953713740667  0.25  0.0  1.0000
  S   S331      1.0  0.42322269610960456  0.26666666666666666  0.07940000000000001  1.0000
  S   S332      1.0  0.42322269610960456  0.26666666666666666  -0.07940000000000001  1.0000
  W   W167      1.0  0.38749999999999996  0.3  0.0  1.0000
  S   S333      1.0  0.4222686755248129  0.3166666666666666  0.07940000000000001  1.0000
  S   S334      1.0  0.4222686755248129  0.3166666666666666  -0.07940000000000001  1.0000
  W   W168      1.0  0.3862712337764753  0.35000000000000003  0.0  1.0000
  S   S335      1.0  0.4208333333333333  0.36666666666666664  0.07940000000000001  1.0000
  S   S336      1.0  0.4208333333333333  0.36666666666666664  -0.07940000000000001  1.0000
  W   W169      1.0  0.385322770121982  0.4  0.0  1.0000
  S   S337      1.0  0.41903225391227633  0.41666666666666663  0.07940000000000001  1.0000
  S   S338      1.0  0.41903225391227633  0.41666666666666663  -0.07940000000000001  1.0000
  W   W170      1.0  0.3851349770326127  0.44999999999999996  0.0  1.0000
  S   S339      1.0  0.41846831036594606  0.4666666666666666  0.07940000000000001  1.0000
  S   S340      1.0  0.41846831036594606  0.4666666666666666  -0.07940000000000001  1.0000
  W   W171      1.0  0.43295774715459473  0.5  0.0  1.0000
  S   S341      1.0  0.4644939037533608  0.5166666666666666  0.07940000000000001  1.0000
  S   S342      1.0  0.4644939037533608  0.5166666666666666  -0.07940000000000001  1.0000
  W   W172      1.0  0.4294514362004103  0.5499999999999999  0.0  1.0000
  S   S343      1.0  0.46013497703261275  0.5666666666666667  0.07940000000000001  1.0000
  S   S344      1.0  0.46013497703261275  0.5666666666666667  -0.07940000000000001  1.0000
  W   W173      1.0  0.42680164369927936  0.6  0.0  1.0000
  S   S345      1.0  0.45773700413694823  0.6166666666666667  0.07940000000000001  1.0000
  S   S346      1.0  0.45773700413694823  0.6166666666666667  -0.07940000000000001  1.0000
  W   W174      1.0  0.42504915616605476  0.6499999999999999  0.0  1.0000
  S   S347      1.0  0.4563683118642  0.6666666666666666  0.07940000000000001  1.0000
  S   S348      1.0  0.4563683118642  0.6666666666666666  -0.07940000000000001  1.0000
  W   W175      1.0  0.4238676459426272  0.7000000000000001  0.0  1.0000
  S   S349      1.0  0.4555079622724838  0.7166666666666668  0.07940000000000001  1.0000
  S   S350      1.0  0.4555079622724838  0.7166666666666668  -0.07940000000000001  1.0000
  W   W176      1.0  0.4230349785308667  0.75  0.0  1.0000
  S   S351      1.0  0.4549234345453008  0.7666666666666667  0.07940000000000001  1.0000
  S   S352      1.0  0.4549234345453008  0.7666666666666667  -0.07940000000000001  1.0000
  W   W177      1.0  0.4224227686237281  0.8  0.0  1.0000
  S   S353      1.0  0.4545025160428974  0.8166666666666667  0.07940000000000001  1.0000
  S   S354      1.0  0.4545025160428974  0.8166666666666667  -0.07940000000000001  1.0000
  W   W178      1.0  0.4219562452374222  0.85  0.0  1.0000
  S   S355      1.0  0.45418578001773086  0.8666666666666667  0.07940000000000001  1.0000
  S   S356      1.0  0.45418578001773086  0.8666666666666667  -0.07940000000000001  1.0000
  W   W179      1.0  0.4215901012119675  0.8999999999999999  0.0  1.0000
  S   S357      1.0  0.45393917922420446  0.9166666666666666  0.07940000000000001  1.0000
  S   S358      1.0  0.45393917922420446  0.9166666666666666  -0.07940000000000001  1.0000
  W   W180      1.0  0.4212956701125384  0.9500000000000001  0.0  1.0000
  S   S359      1.0  0.4537419243218733  0.9666666666666668  0.07940000000000001  1.0000
  S   S360      1.0  0.4537419243218733  0.9666666666666668  -0.07940000000000001  1.0000
  W   W181      1.0  0.4423423977928106  0.0  0.0  1.0000
  S   S361      1.0  0.476542149590148  0.016666666666666666  0.07940000000000001  1.0000
  S   S362      1.0  0.476542149590148  0.016666666666666666  -0.07940000000000001  1.0000
  W   W182      1.0  0.44219405237250925  0.05  0.0  1.0000
  S   S363      1.0  0.4764900835735347  0.06666666666666667  0.07940000000000001  1.0000
  S   S364      1.0  0.4764900835735347  0.06666666666666667  -0.07940000000000001  1.0000
  W   W183      1.0  0.4420083231214933  0.1  0.0  1.0000
  S   S365      1.0  0.4764243141427798  0.11666666666666667  0.07940000000000001  1.0000
  S   S366      1.0  0.4764243141427798  0.11666666666666667  -0.07940000000000001  1.0000
  W   W184      1.0  0.4417692757583683  0.15  0.0  1.0000
  S   S367      1.0  0.4763386206376174  0.16666666666666666  0.07940000000000001  1.0000
  S   S368      1.0  0.4763386206376174  0.16666666666666666  -0.07940000000000001  1.0000
  W   W185      1.0  0.44145065670048783  0.2  0.0  1.0000
  S   S369      1.0  0.47622235520508527  0.21666666666666667  0.07940000000000001  1.0000
  S   S370      1.0  0.47622235520508527  0.21666666666666667  -0.07940000000000001  1.0000
  W   W186      1.0  0.4410063109541844  0.25  0.0  1.0000
  S   S371      1.0  0.47605566727493104  0.26666666666666666  0.07940000000000001  1.0000
  S   S372      1.0  0.47605566727493104  0.26666666666666666  -0.07940000000000001  1.0000
  W   W187      1.0  0.44034853908428306  0.3  0.0  1.0000
  S   S373      1.0  0.4757968895098243  0.3166666666666666  0.07940000000000001  1.0000
  S   S374      1.0  0.4757968895098243  0.3166666666666666  -0.07940000000000001  1.0000
  W   W188      1.0  0.43929717673456714  0.35000000000000003  0.0  1.0000
  S   S375      1.0  0.47534165645482657  0.36666666666666664  0.07940000000000001  1.0000
  S   S376      1.0  0.47534165645482657  0.36666666666666664  -0.07940000000000001  1.0000
  W   W189      1.0  0.4375  0.4  0.0  1.0000
  S   S377      1.0  0.47433964428751774  0.41666666666666663  0.07940000000000001  1.0000
  S   S378      1.0  0.47433964428751774  0.41666666666666663  -0.07940000000000001  1.0000
  W   W190      1.0  0.43532277012198195  0.44999999999999996  0.0  1.0000
  S   S379      1.0  0.47083333333333327  0.4666666666666666  0.07940000000000001  1.0000
  S   S380      1.0  0.47083333333333327  0.4666666666666666  -0.07940000000000001  1.0000
  W   W191      1.0  0.4829577471545947  0.5  0.0  1.0000
  S   S381      1.0  0.5101349770326127  0.5166666666666666  0.07940000000000001  1.0000
  S   S382      1.0  0.5101349770326127  0.5166666666666666  -0.07940000000000001  1.0000
  W   W192      1.0  0.47680164369927935  0.5499999999999999  0.0  1.0000
  S   S383      1.0  0.5049234345453009  0.5666666666666667  0.07940000000000001  1.0000
  S   S384      1.0  0.5049234345453009  0.5666666666666667  -0.07940000000000001  1.0000
  W   W193      1.0  0.4738676459426272  0.6  0.0  1.0000
  S   S385      1.0  0.5037419243218733  0.6166666666666667  0.07940000000000001  1.0000
  S   S386      1.0  0.5037419243218733  0.6166666666666667  -0.07940000000000001  1.0000
  W   W194      1.0  0.472422768623728  0.6499999999999999  0.0  1.0000
  S   S387      1.0  0.5032357526293283  0.6666666666666666  0.07940000000000001  1.0000
  S   S388      1.0  0.5032357526293283  0.6666666666666666  -0.07940000000000001  1.0000
  W   W195      1.0  0.4715901012119675  0.7000000000000001  0.0  1.0000
  S   S389      1.0  0.502955820020213  0.7166666666666668  0.07940000000000001  1.0000
  S   S390      1.0  0.502955820020213  0.7166666666666668  -0.07940000000000001  1.0000
  W   W196      1.0  0.4710540763509798  0.75  0.0  1.0000
  S   S391      1.0  0.5027783803149444  0.7666666666666667  0.07940000000000001  1.0000
  S   S392      1.0  0.5027783803149444  0.7666666666666667  -0.07940000000000001  1.0000
  W   W197      1.0  0.47068172906774947  0.8  0.0  1.0000
  S   S393      1.0  0.5026559177962834  0.8166666666666667  0.07940000000000001  1.0000
  S   S394      1.0  0.5026559177962834  0.8166666666666667  -0.07940000000000001  1.0000
  W   W198      1.0  0.47040859098853993  0.85  0.0  1.0000
  S   S395      1.0  0.502566331249835  0.8666666666666667  0.07940000000000001  1.0000
  S   S396      1.0  0.502566331249835  0.8666666666666667  -0.07940000000000001  1.0000
  W   W199      1.0  0.47019991221436724  0.8999999999999999  0.0  1.0000
  S   S397      1.0  0.502497957915231  0.9166666666666666  0.07940000000000001  1.0000
  S   S398      1.0  0.502497957915231  0.9166666666666666  -0.07940000000000001  1.0000
  W   W200      1.0  0.4700353949460173  0.9500000000000001  0.0  1.0000
  S   S399      1.0  0.5024440650823104  0.9666666666666668  0.07940000000000001  1.0000
  S   S400      1.0  0.5024440650823104  0.9666666666666668  -0.07940000000000001  1.0000
  W   W201      1.0  0.49365610345531535  0.0  0.0  1.0000
  S   S401      1.0  0.5278581523855848  0.016666666666666666  0.07940000000000001  1.0000
  S   S402      1.0  0.5278581523855848  0.016666666666666666  -0.07940000000000001  1.0000
  W   W202      1.0  0.49365610345531535  0.05  0.0  1.0000
  S   S403      1.0  0.5279558200202129  0.06666666666666667  0.07940000000000001  1.0000
  S   S404      1.0  0.5279558200202129  0.06666666666666667  -0.07940000000000001  1.0000
  W   W203      1.0  0.4936561034553154  0.1  0.0  1.0000
  S   S405      1.0  0.5280781419071608  0.11666666666666667  0.07940000000000001  1.0000
  S   S406      1.0  0.5280781419071608  0.11666666666666667  -0.07940000000000001  1.0000
  W   W204      1.0  0.4936561034553153  0.15  0.0  1.0000
  S   S407      1.0  0.5282357526293282  0.16666666666666666  0.07940000000000001  1.0000
  S   S408      1.0  0.5282357526293282  0.16666666666666666  -0.07940000000000001  1.0000
  W   W205      1.0  0.49365610345531535  0.2  0.0  1.0000
  S   S409      1.0  0.5284463861499403  0.21666666666666667  0.07940000000000001  1.0000
  S   S410      1.0  0.5284463861499403  0.21666666666666667  -0.07940000000000001  1.0000
  W   W206      1.0  0.49365610345531535  0.25  0.0  1.0000
  S   S411      1.0  0.5287419243218733  0.26666666666666666  0.07940000000000001  1.0000
  S   S412      1.0  0.5287419243218733  0.26666666666666666  -0.07940000000000001  1.0000
  W   W207      1.0  0.49365610345531535  0.3  0.0  1.0000
  S   S413      1.0  0.5291857800177309  0.3166666666666666  0.07940000000000001  1.0000
  S   S414      1.0  0.5291857800177309  0.3166666666666666  -0.07940000000000001  1.0000
  W   W208      1.0  0.4936561034553154  0.35000000000000003  0.0  1.0000
  S   S415      1.0  0.5299234345453008  0.36666666666666664  0.07940000000000001  1.0000
  S   S416      1.0  0.5299234345453008  0.36666666666666664  -0.07940000000000001  1.0000
  W   W209      1.0  0.49365610345531535  0.4  0.0  1.0000
  S   S417      1.0  0.5313683118642  0.41666666666666663  0.07940000000000001  1.0000
  S   S418      1.0  0.5313683118642  0.41666666666666663  -0.07940000000000001  1.0000
  W   W210      1.0  0.4936561034553154  0.44999999999999996  0.0  1.0000
  S   S419      1.0  0.5351349770326127  0.4666666666666666  0.07940000000000001  1.0000
  S   S420      1.0  0.5351349770326127  0.4666666666666666  -0.07940000000000001  1.0000
  S   S421      1.0  0.543468310365946  0.5166666666666666  0.07940000000000001  1.0000
  S   S422      1.0  0.543468310365946  0.5166666666666666  -0.07940000000000001  1.0000
  W   W211      1.0  0.5186561034553153  0.5499999999999999  0.0  1.0000
  S   S423      1.0  0.5458333333333334  0.5666666666666667  0.07940000000000001  1.0000
  S   S424      1.0  0.5458333333333334  0.5666666666666667  -0.07940000000000001  1.0000
  W   W212      1.0  0.5186561034553153  0.6  0.0  1.0000
  S   S425      1.0  0.5482226961096047  0.6166666666666667  0.07940000000000001  1.0000
  S   S426      1.0  0.5482226961096047  0.6166666666666667  -0.07940000000000001  1.0000
  W   W213      1.0  0.5186561034553153  0.6499999999999999  0.0  1.0000
  S   S427      1.0  0.5493396442875178  0.6666666666666666  0.07940000000000001  1.0000
  S   S428      1.0  0.5493396442875178  0.6666666666666666  -0.07940000000000001  1.0000
  W   W214      1.0  0.5186561034553153  0.7000000000000001  0.0  1.0000
  S   S429      1.0  0.5499554965627216  0.7166666666666668  0.07940000000000001  1.0000
  S   S430      1.0  0.5499554965627216  0.7166666666666668  -0.07940000000000001  1.0000
  W   W215      1.0  0.5186561034553153  0.75  0.0  1.0000
  S   S431      1.0  0.5503416564548267  0.7666666666666667  0.07940000000000001  1.0000
  S   S432      1.0  0.5503416564548267  0.7666666666666667  -0.07940000000000001  1.0000
  W   W216      1.0  0.5186561034553154  0.8  0.0  1.0000
  S   S433      1.0  0.5506054942819864  0.8166666666666667  0.07940000000000001  1.0000
  S   S434      1.0  0.5506054942819864  0.8166666666666667  -0.07940000000000001  1.0000
  W   W217      1.0  0.5186561034553153  0.85  0.0  1.0000
  S   S435      1.0  0.5507968895098244  0.8666666666666667  0.07940000000000001  1.0000
  S   S436      1.0  0.5507968895098244  0.8666666666666667  -0.07940000000000001  1.0000
  W   W218      1.0  0.5186561034553153  0.8999999999999999  0.0  1.0000
  S   S437      1.0  0.5509419635206785  0.9166666666666666  0.07940000000000001  1.0000
  S   S438      1.0  0.5509419635206785  0.9166666666666666  -0.07940000000000001  1.0000
  W   W219      1.0  0.5186561034553153  0.9500000000000001  0.0  1.0000
  S   S439      1.0  0.5510556672749312  0.9666666666666668  0.07940000000000001  1.0000
  S   S440      1.0  0.5510556672749312  0.9666666666666668  -0.07940000000000001  1.0000
  W   W220      1.0  0.5449024192959949  0.0  0.0  1.0000
  S   S441      1.0  0.5790801035478992  0.016666666666666666  0.07940000000000001  1.0000
  S   S442      1.0  0.5790801035478992  0.016666666666666666  -0.07940000000000001  1.0000
  W   W221      1.0  0.5450353949460173  0.05  0.0  1.0000
  S   S443      1.0  0.5793025376202726  0.06666666666666667  0.07940000000000001  1.0000
  S   S444      1.0  0.5793025376202726  0.06666666666666667  -0.07940000000000001  1.0000
  W   W222      1.0  0.5451999122143673  0.1  0.0  1.0000
  S   S445      1.0  0.579576938814499  0.11666666666666667  0.07940000000000001  1.0000
  S   S446      1.0  0.579576938814499  0.11666666666666667  -0.07940000000000001  1.0000
  W   W223      1.0  0.5454085909885399  0.15  0.0  1.0000
  S   S447      1.0  0.5799234345453008  0.16666666666666666  0.07940000000000001  1.0000
  S   S448      1.0  0.5799234345453008  0.16666666666666666  -0.07940000000000001  1.0000
  W   W224      1.0  0.5456817290677494  0.2  0.0  1.0000
  S   S449      1.0  0.5803737008860198  0.21666666666666667  0.07940000000000001  1.0000
  S   S450      1.0  0.5803737008860198  0.21666666666666667  -0.07940000000000001  1.0000
  W   W225      1.0  0.5460540763509798  0.25  0.0  1.0000
  S   S451      1.0  0.580980167553539  0.26666666666666666  0.07940000000000001  1.0000
  S   S452      1.0  0.580980167553539  0.26666666666666666  -0.07940000000000001  1.0000
  W   W226      1.0  0.5465901012119675  0.3  0.0  1.0000
  S   S453      1.0  0.5818348352505058  0.3166666666666666  0.07940000000000001  1.0000
  S   S454      1.0  0.5818348352505058  0.3166666666666666  -0.07940000000000001  1.0000
  W   W227      1.0  0.5474227686237281  0.35000000000000003  0.0  1.0000
  S   S455      1.0  0.5831093514201785  0.36666666666666664  0.07940000000000001  1.0000
  S   S456      1.0  0.5831093514201785  0.36666666666666664  -0.07940000000000001  1.0000
  W   W228      1.0  0.5488676459426272  0.4  0.0  1.0000
  S   S457      1.0  0.5851349770326127  0.41666666666666663  0.07940000000000001  1.0000
  S   S458      1.0  0.5851349770326127  0.41666666666666663  -0.07940000000000001  1.0000
  W   W229      1.0  0.5518016436992794  0.44999999999999996  0.0  1.0000
  S   S459      1.0  0.5884425414036449  0.4666666666666666  0.07940000000000001  1.0000
  S   S460      1.0  0.5884425414036449  0.4666666666666666  -0.07940000000000001  1.0000
  W   W230      1.0  0.5579577471545947  0.5  0.0  1.0000
  S   S461      1.0  0.5925198467114527  0.5166666666666666  0.07940000000000001  1.0000
  S   S462      1.0  0.5925198467114527  0.5166666666666666  -0.07940000000000001  1.0000
  W   W231      1.0  0.560322770121982  0.5499999999999999  0.0  1.0000
  S   S463      1.0  0.5935641582538757  0.5666666666666667  0.07940000000000001  1.0000
  S   S464      1.0  0.5935641582538757  0.5666666666666667  -0.07940000000000001  1.0000
  W   W232      1.0  0.5624999999999999  0.6  0.0  1.0000
  S   S465      1.0  0.5943621721518229  0.6166666666666667  0.07940000000000001  1.0000
  S   S466      1.0  0.5943621721518229  0.6166666666666667  -0.07940000000000001  1.0000
  W   W233      1.0  0.5642971767345673  0.6499999999999999  0.0  1.0000
  S   S467      1.0  0.5958333333333333  0.6666666666666666  0.07940000000000001  1.0000
  S   S468      1.0  0.5958333333333333  0.6666666666666666  -0.07940000000000001  1.0000
  W   W234      1.0  0.5653485390842831  0.7000000000000001  0.0  1.0000
  S   S469      1.0  0.5970261714528448  0.7166666666666668  0.07940000000000001  1.0000
  S   S470      1.0  0.5970261714528448  0.7166666666666668  -0.07940000000000001  1.0000
  W   W235      1.0  0.5660063109541844  0.75  0.0  1.0000
  S   S471      1.0  0.5978863654867349  0.7666666666666667  0.07940000000000001  1.0000
  S   S472      1.0  0.5978863654867349  0.7666666666666667  -0.07940000000000001  1.0000
  W   W236      1.0  0.5664506567004878  0.8  0.0  1.0000
  S   S473      1.0  0.5985114474641317  0.8166666666666667  0.07940000000000001  1.0000
  S   S474      1.0  0.5985114474641317  0.8166666666666667  -0.07940000000000001  1.0000
  W   W237      1.0  0.5667692757583683  0.85  0.0  1.0000
  S   S475      1.0  0.5989791269748581  0.8666666666666667  0.07940000000000001  1.0000
  S   S476      1.0  0.5989791269748581  0.8666666666666667  -0.07940000000000001  1.0000
  W   W238      1.0  0.5670083231214933  0.8999999999999999  0.0  1.0000
  S   S477      1.0  0.5993396442875177  0.9166666666666666  0.07940000000000001  1.0000
  S   S478      1.0  0.5993396442875177  0.9166666666666666  -0.07940000000000001  1.0000
  W   W239      1.0  0.5671940523725093  0.9500000000000001  0.0  1.0000
  S   S479      1.0  0.599624965792916  0.9666666666666668  0.07940000000000001  1.0000
  S   S480      1.0  0.599624965792916  0.9666666666666668  -0.07940000000000001  1.0000
  W   W240      1.0  0.5960540763509797  0.0  0.0  1.0000
  S   S481      1.0  0.6301899687304051  0.016666666666666666  0.07940000000000001  1.0000
  S   S482      1.0  0.6301899687304051  0.016666666666666666  -0.07940000000000001  1.0000
  W   W241      1.0  0.5962956701125384  0.05  0.0  1.0000
  S   S483      1.0  0.6305079622724836  0.06666666666666667  0.07940000000000001  1.0000
  S   S484      1.0  0.6305079622724836  0.06666666666666667  -0.07940000000000001  1.0000
  W   W242      1.0  0.5965901012119675  0.1  0.0  1.0000
  S   S485      1.0  0.6308932136503034  0.11666666666666667  0.07940000000000001  1.0000
  S   S486      1.0  0.6308932136503034  0.11666666666666667  -0.07940000000000001  1.0000
  W   W243      1.0  0.5969562452374221  0.15  0.0  1.0000
  S   S487      1.0  0.6313683118642001  0.16666666666666666  0.07940000000000001  1.0000
  S   S488      1.0  0.6313683118642001  0.16666666666666666  -0.07940000000000001  1.0000
  W   W244      1.0  0.597422768623728  0.2  0.0  1.0000
  S   S489      1.0  0.6319663619959798  0.21666666666666667  0.07940000000000001  1.0000
  S   S490      1.0  0.6319663619959798  0.21666666666666667  -0.07940000000000001  1.0000
  W   W245      1.0  0.5980349785308666  0.25  0.0  1.0000
  S   S491      1.0  0.6327370041369482  0.26666666666666666  0.07940000000000001  1.0000
  S   S492      1.0  0.6327370041369482  0.26666666666666666  -0.07940000000000001  1.0000
  W   W246      1.0  0.5988676459426272  0.3  0.0  1.0000
  S   S493      1.0  0.6337556855419108  0.3166666666666666  0.07940000000000001  1.0000
  S   S494      1.0  0.6337556855419108  0.3166666666666666  -0.07940000000000001  1.0000
  W   W247      1.0  0.6000491561660548  0.35000000000000003  0.0  1.0000
  S   S495      1.0  0.6351349770326127  0.36666666666666664  0.07940000000000001  1.0000
  S   S496      1.0  0.6351349770326127  0.36666666666666664  -0.07940000000000001  1.0000
  W   W248      1.0  0.6018016436992795  0.4  0.0  1.0000
  S   S497      1.0  0.6370218047295596  0.41666666666666663  0.07940000000000001  1.0000
  S   S498      1.0  0.6370218047295596  0.41666666666666663  -0.07940000000000001  1.0000
  W   W249      1.0  0.6044514362004103  0.44999999999999996  0.0  1.0000
  S   S499      1.0  0.6394939037533609  0.4666666666666666  0.07940000000000001  1.0000
  S   S500      1.0  0.6394939037533609  0.4666666666666666  -0.07940000000000001  1.0000
  W   W250      1.0  0.6079577471545947  0.5  0.0  1.0000
  S   S501      1.0  0.6421012032265295  0.5166666666666666  0.07940000000000001  1.0000
  S   S502      1.0  0.6421012032265295  0.5166666666666666  -0.07940000000000001  1.0000
  W   W251      1.0  0.6101349770326127  0.5499999999999999  0.0  1.0000
  S   S503      1.0  0.6434683103659461  0.5666666666666667  0.07940000000000001  1.0000
  S   S504      1.0  0.6434683103659461  0.5666666666666667  -0.07940000000000001  1.0000
  W   W252      1.0  0.610322770121982  0.6  0.0  1.0000
  S   S505      1.0  0.6435789311125317  0.6166666666666667  0.07940000000000001  1.0000
  S   S506      1.0  0.6435789311125317  0.6166666666666667  -0.07940000000000001  1.0000
  W   W253      1.0  0.6112712337764753  0.6499999999999999  0.0  1.0000
  S   S507      1.0  0.6440322539122763  0.6666666666666666  0.07940000000000001  1.0000
  S   S508      1.0  0.6440322539122763  0.6666666666666666  -0.07940000000000001  1.0000
  W   W254      1.0  0.6125  0.7000000000000001  0.0  1.0000
  S   S509      1.0  0.6449180910447962  0.7166666666666668  0.07940000000000001  1.0000
  S   S510      1.0  0.6449180910447962  0.7166666666666668  -0.07940000000000001  1.0000
  W   W255      1.0  0.6135195371374066  0.75  0.0  1.0000
  S   S511      1.0  0.6458333333333333  0.7666666666666667  0.07940000000000001  1.0000
  S   S512      1.0  0.6458333333333333  0.7666666666666667  -0.07940000000000001  1.0000
  W   W256      1.0  0.6142971767345672  0.8  0.0  1.0000
  S   S513      1.0  0.6466223523702603  0.8166666666666667  0.07940000000000001  1.0000
  S   S514      1.0  0.6466223523702603  0.8166666666666667  -0.07940000000000001  1.0000
  W   W257      1.0  0.6148893627762713  0.85  0.0  1.0000
  S   S515      1.0  0.6472686755248129  0.8666666666666667  0.07940000000000001  1.0000
  S   S516      1.0  0.6472686755248129  0.8666666666666667  -0.07940000000000001  1.0000
  W   W258      1.0  0.6153485390842831  0.8999999999999999  0.0  1.0000
  S   S517      1.0  0.6477936401363696  0.9166666666666666  0.07940000000000001  1.0000
  S   S518      1.0  0.6477936401363696  0.9166666666666666  -0.07940000000000001  1.0000
  W   W259      1.0  0.6157122787099814  0.9500000000000001  0.0  1.0000
  S   S519      1.0  0.6482226961096046  0.9666666666666668  0.07940000000000001  1.0000
  S   S520      1.0  0.6482226961096046  0.9666666666666668  -0.07940000000000001  1.0000
  W   W260      1.0  0.6470987942160517  0.0  0.0  1.0000
  S   S521      1.0  0.6811833459163515  0.016666666666666666  0.07940000000000001  1.0000
  S   S522      1.0  0.6811833459163515  0.016666666666666666  -0.07940000000000001  1.0000
  W   W261      1.0  0.6474227686237279  0.05  0.0  1.0000
  S   S523      1.0  0.6815693820086146  0.06666666666666667  0.07940000000000001  1.0000
  S   S524      1.0  0.6815693820086146  0.06666666666666667  -0.07940000000000001  1.0000
  W   W262      1.0  0.647810912934389  0.1  0.0  1.0000
  S   S525      1.0  0.6820283732522989  0.11666666666666667  0.07940000000000001  1.0000
  S   S526      1.0  0.6820283732522989  0.11666666666666667  -0.07940000000000001  1.0000
  W   W263      1.0  0.6482831182154442  0.15  0.0  1.0000
  S   S527      1.0  0.6825810790898723  0.16666666666666666  0.07940000000000001  1.0000
  S   S528      1.0  0.6825810790898723  0.16666666666666666  -0.07940000000000001  1.0000
  W   W264      1.0  0.6488676459426271  0.2  0.0  1.0000
  S   S529      1.0  0.6832556932753058  0.21666666666666667  0.07940000000000001  1.0000
  S   S530      1.0  0.6832556932753058  0.21666666666666667  -0.07940000000000001  1.0000
  W   W265      1.0  0.649605300470197  0.25  0.0  1.0000
  S   S531      1.0  0.6840903364273914  0.26666666666666666  0.07940000000000001  1.0000
  S   S532      1.0  0.6840903364273914  0.26666666666666666  -0.07940000000000001  1.0000
  W   W266      1.0  0.6505553278585996  0.3  0.0  1.0000
  S   S533      1.0  0.6851349770326126  0.3166666666666666  0.07940000000000001  1.0000
  S   S534      1.0  0.6851349770326126  0.3166666666666666  -0.07940000000000001  1.0000
  W   W267      1.0  0.6518016436992794  0.35000000000000003  0.0  1.0000
  S   S535      1.0  0.6864486826951175  0.36666666666666664  0.07940000000000001  1.0000
  S   S536      1.0  0.6864486826951175  0.36666666666666664  -0.07940000000000001  1.0000
  W   W268      1.0  0.6534494240331014  0.4  0.0  1.0000
  S   S537      1.0  0.6880788017779466  0.41666666666666663  0.07940000000000001  1.0000
  S   S538      1.0  0.6880788017779466  0.41666666666666663  -0.07940000000000001  1.0000
  W   W269      1.0  0.6555683843783234  0.44999999999999996  0.0  1.0000
  S   S539      1.0  0.6899879537761983  0.4666666666666666  0.07940000000000001  1.0000
  S   S540      1.0  0.6899879537761983  0.4666666666666666  -0.07940000000000001  1.0000
  W   W270      1.0  0.6579577471545947  0.5  0.0  1.0000
  S   S541      1.0  0.6918921735863431  0.5166666666666666  0.07940000000000001  1.0000
  S   S542      1.0  0.6918921735863431  0.5166666666666666  -0.07940000000000001  1.0000
  W   W271      1.0  0.6597588265756515  0.5499999999999999  0.0  1.0000
  S   S543      1.0  0.6931881250194882  0.5666666666666667  0.07940000000000001  1.0000
  S   S544      1.0  0.6931881250194882  0.5666666666666667  -0.07940000000000001  1.0000
  W   W272      1.0  0.6602269222340523  0.6  0.0  1.0000
  S   S545      1.0  0.6935559695715668  0.6166666666666667  0.07940000000000001  1.0000
  S   S546      1.0  0.6935559695715668  0.6166666666666667  -0.07940000000000001  1.0000
  W   W273      1.0  0.6603227701219819  0.6499999999999999  0.0  1.0000
  S   S547      1.0  0.6935926959754537  0.6666666666666666  0.07940000000000001  1.0000
  S   S548      1.0  0.6935926959754537  0.6666666666666666  -0.07940000000000001  1.0000
  W   W274      1.0  0.6608757297087314  0.7000000000000001  0.0  1.0000
  S   S549      1.0  0.6939036106465377  0.7166666666666668  0.07940000000000001  1.0000
  S   S550      1.0  0.6939036106465377  0.7166666666666668  -0.07940000000000001  1.0000
  W   W275      1.0  0.6616898772613984  0.75  0.0  1.0000
  S   S551      1.0  0.6944929352534774  0.7666666666666667  0.07940000000000001  1.0000
  S   S552      1.0  0.6944929352534774  0.7666666666666667  -0.07940000000000001  1.0000
  W   W276      1.0  0.6625  0.8  0.0  1.0000
  S   S553      1.0  0.6951754859528005  0.8166666666666667  0.07940000000000001  1.0000
  S   S554      1.0  0.6951754859528005  0.8166666666666667  -0.07940000000000001  1.0000
  W   W277      1.0  0.663208630222126  0.85  0.0  1.0000
  S   S555      1.0  0.6958333333333333  0.8666666666666667  0.07940000000000001  1.0000
  S   S556      1.0  0.6958333333333333  0.8666666666666667  -0.07940000000000001  1.0000
  W   W278      1.0  0.6638031267117297  0.8999999999999999  0.0  1.0000
  S   S557      1.0  0.6964217973500746  0.9166666666666666  0.07940000000000001  1.0000
  S   S558      1.0  0.6964217973500746  0.9166666666666666  -0.07940000000000001  1.0000
  W   W279      1.0  0.6642971767345672  0.9500000000000001  0.0  1.0000
  S   S559      1.0  0.6969328378468483  0.9666666666666668  0.07940000000000001  1.0000
  S   S560      1.0  0.6969328378468483  0.9666666666666668  -0.07940000000000001  1.0000
  W   W280      1.0  0.6980349785308667  0.0  0.0  1.0000
  S   S561      1.0  0.7320644584460357  0.016666666666666666  0.07940000000000001  1.0000
  S   S562      1.0  0.7320644584460357  0.016666666666666666  -0.07940000000000001  1.0000
  W   W281      1.0  0.6984173796019082  0.05  0.0  1.0000
  S   S563      1.0  0.7324954103753897  0.06666666666666667  0.07940000000000001  1.0000
  S   S564      1.0  0.7324954103753897  0.06666666666666667  -0.07940000000000001  1.0000
  W   W282      1.0  0.6988676459426273  0.1  0.0  1.0000
  S   S565      1.0  0.7329986091652314  0.11666666666666667  0.07940000000000001  1.0000
  S   S566      1.0  0.7329986091652314  0.11666666666666667  -0.07940000000000001  1.0000
  W   W283      1.0  0.6994036708036149  0.15  0.0  1.0000
  S   S567      1.0  0.7335911682735609  0.16666666666666666  0.07940000000000001  1.0000
  S   S568      1.0  0.7335911682735609  0.16666666666666666  -0.07940000000000001  1.0000
  W   W284      1.0  0.7000491561660549  0.2  0.0  1.0000
  S   S569      1.0  0.7342945823821241  0.21666666666666667  0.07940000000000001  1.0000
  S   S570      1.0  0.7342945823821241  0.21666666666666667  -0.07940000000000001  1.0000
  W   W285      1.0  0.7008352604677152  0.25  0.0  1.0000
  S   S571      1.0  0.7351349770326128  0.26666666666666666  0.07940000000000001  1.0000
  S   S572      1.0  0.7351349770326128  0.26666666666666666  -0.07940000000000001  1.0000
  W   W286      1.0  0.7018016436992793  0.3  0.0  1.0000
  S   S573      1.0  0.7361416029221274  0.3166666666666666  0.07940000000000001  1.0000
  S   S574      1.0  0.7361416029221274  0.3166666666666666  -0.07940000000000001  1.0000
  W   W287      1.0  0.7029941909781037  0.35000000000000003  0.0  1.0000
  S   S575      1.0  0.7373404237874402  0.36666666666666664  0.07940000000000001  1.0000
  S   S576      1.0  0.7373404237874402  0.36666666666666664  -0.07940000000000001  1.0000
  W   W288      1.0  0.7044514362004104  0.4  0.0  1.0000
  S   S577      1.0  0.7387360257560832  0.41666666666666663  0.07940000000000001  1.0000
  S   S578      1.0  0.7387360257560832  0.41666666666666663  -0.07940000000000001  1.0000
  W   W289      1.0  0.7061605704200276  0.44999999999999996  0.0  1.0000
  S   S579      1.0  0.7402715433505215  0.4666666666666666  0.07940000000000001  1.0000
  S   S580      1.0  0.7402715433505215  0.4666666666666666  -0.07940000000000001  1.0000
  W   W290      1.0  0.7079577471545948  0.5  0.0  1.0000
  S   S581      1.0  0.7417682579517918  0.5166666666666666  0.07940000000000001  1.0000
  S   S582      1.0  0.7417682579517918  0.5166666666666666  -0.07940000000000001  1.0000
  W   W291      1.0  0.7094289083361052  0.5499999999999999  0.0  1.0000
  S   S583      1.0  0.7429153507791966  0.5666666666666667  0.07940000000000001  1.0000
  S   S584      1.0  0.7429153507791966  0.5666666666666667  -0.07940000000000001  1.0000
  W   W292      1.0  0.7101349770326127  0.6  0.0  1.0000
  S   S585      1.0  0.743468310365946  0.6166666666666667  0.07940000000000001  1.0000
  S   S586      1.0  0.743468310365946  0.6166666666666667  -0.07940000000000001  1.0000
  W   W293      1.0  0.7102289113326131  0.6499999999999999  0.0  1.0000
  S   S587      1.0  0.743562169155315  0.6666666666666666  0.07940000000000001  1.0000
  S   S588      1.0  0.743562169155315  0.6666666666666666  -0.07940000000000001  1.0000
  W   W294      1.0  0.710322770121982  0.7000000000000001  0.0  1.0000
  S   S589      1.0  0.7436029043234589  0.7166666666666668  0.07940000000000001  1.0000
  S   S590      1.0  0.7436029043234589  0.7166666666666668  -0.07940000000000001  1.0000
  W   W295      1.0  0.710698920578943  0.75  0.0  1.0000
  S   S591      1.0  0.7438379829975015  0.7666666666666667  0.07940000000000001  1.0000
  S   S592      1.0  0.7438379829975015  0.7666666666666667  -0.07940000000000001  1.0000
  W   W296      1.0  0.7112712337764753  0.8  0.0  1.0000
  S   S593      1.0  0.7442627407137414  0.8166666666666667  0.07940000000000001  1.0000
  S   S594      1.0  0.7442627407137414  0.8166666666666667  -0.07940000000000001  1.0000
  W   W297      1.0  0.7118989069015847  0.85  0.0  1.0000
  S   S595      1.0  0.7447830434235276  0.8666666666666667  0.07940000000000001  1.0000
  S   S596      1.0  0.7447830434235276  0.8666666666666667  -0.07940000000000001  1.0000
  W   W298      1.0  0.7125  0.8999999999999999  0.0  1.0000
  S   S597      1.0  0.7453208987480053  0.9166666666666666  0.07940000000000001  1.0000
  S   S598      1.0  0.7453208987480053  0.9166666666666666  -0.07940000000000001  1.0000
  W   W299      1.0  0.7130424048995572  0.9500000000000001  0.0  1.0000
  S   S599      1.0  0.7458333333333333  0.9666666666666668  0.07940000000000001  1.0000
  S   S600      1.0  0.7458333333333333  0.9666666666666668  -0.07940000000000001  1.0000
  W   W300      1.0  0.7488676459426272  0.0  0.0  1.0000
  S   S601      1.0  0.7828421775655567  0.016666666666666666  0.07940000000000001  1.0000
  S   S602      1.0  0.7828421775655567  0.016666666666666666  -0.07940000000000001  1.0000
  W   W301      1.0  0.7492885644450308  0.05  0.0  1.0000
  S   S603      1.0  0.7832999299781447  0.06666666666666667  0.07940000000000001  1.0000
  S   S604      1.0  0.7832999299781447  0.06666666666666667  -0.07940000000000001  1.0000
  W   W302      1.0  0.7497760180868452  0.1  0.0  1.0000
  S   S605      1.0  0.7838255235724297  0.11666666666666667  0.07940000000000001  1.0000
  S   S606      1.0  0.7838255235724297  0.11666666666666667  -0.07940000000000001  1.0000
  W   W303      1.0  0.7503446943379878  0.15  0.0  1.0000
  S   S607      1.0  0.784432123148576  0.16666666666666666  0.07940000000000001  1.0000
  S   S608      1.0  0.784432123148576  0.16666666666666666  -0.07940000000000001  1.0000
  W   W304      1.0  0.7510127001729836  0.2  0.0  1.0000
  S   S609      1.0  0.7851349770326127  0.21666666666666667  0.07940000000000001  1.0000
  S   S610      1.0  0.7851349770326127  0.21666666666666667  -0.07940000000000001  1.0000
  W   W305      1.0  0.7518016436992794  0.25  0.0  1.0000
  S   S611      1.0  0.7859506069097988  0.26666666666666666  0.07940000000000001  1.0000
  S   S612      1.0  0.7859506069097988  0.26666666666666666  -0.07940000000000001  1.0000
  W   W306      1.0  0.7527354132129969  0.3  0.0  1.0000
  S   S613      1.0  0.7868942947524131  0.3166666666666666  0.07940000000000001  1.0000
  S   S614      1.0  0.7868942947524131  0.3166666666666666  -0.07940000000000001  1.0000
  W   W307      1.0  0.7538355839252067  0.35000000000000003  0.0  1.0000
  S   S615      1.0  0.7879740534600829  0.36666666666666664  0.07940000000000001  1.0000
  S   S616      1.0  0.7879740534600829  0.36666666666666664  -0.07940000000000001  1.0000
  W   W308      1.0  0.7551092080703116  0.4  0.0  1.0000
  S   S617      1.0  0.7891782609547309  0.41666666666666663  0.07940000000000001  1.0000
  S   S618      1.0  0.7891782609547309  0.41666666666666663  -0.07940000000000001  1.0000
  W   W309      1.0  0.7565224049631151  0.44999999999999996  0.0  1.0000
  S   S619      1.0  0.7904546893909856  0.4666666666666666  0.07940000000000001  1.0000
  S   S620      1.0  0.7904546893909856  0.4666666666666666  -0.07940000000000001  1.0000
  W   W310      1.0  0.7579577471545947  0.5  0.0  1.0000
  S   S621      1.0  0.7916865090450405  0.5166666666666666  0.07940000000000001  1.0000
  S   S622      1.0  0.7916865090450405  0.5166666666666666  -0.07940000000000001  1.0000
  W   W311      1.0  0.7591865133781195  0.5499999999999999  0.0  1.0000
  S   S623      1.0  0.7926942554623141  0.5666666666666667  0.07940000000000001  1.0000
  S   S624      1.0  0.7926942554623141  0.5666666666666667  -0.07940000000000001  1.0000
  W   W312      1.0  0.7599530974904266  0.6  0.0  1.0000
  S   S625      1.0  0.7933143821030733  0.6166666666666667  0.07940000000000001  1.0000
  S   S626      1.0  0.7933143821030733  0.6166666666666667  -0.07940000000000001  1.0000
  W   W313      1.0  0.7602121493753963  0.6499999999999999  0.0  1.0000
  S   S627      1.0  0.7935404809525729  0.6666666666666666  0.07940000000000001  1.0000
  S   S628      1.0  0.7935404809525729  0.6666666666666666  -0.07940000000000001  1.0000
  W   W314      1.0  0.7602308249205423  0.7000000000000001  0.0  1.0000
  S   S629      1.0  0.7935624311772552  0.7166666666666668  0.07940000000000001  1.0000
  S   S630      1.0  0.7935624311772552  0.7166666666666668  -0.07940000000000001  1.0000
  W   W315      1.0  0.760322770121982  0.75  0.0  1.0000
  S   S631      1.0  0.7936104659819213  0.7666666666666667  0.07940000000000001  1.0000
  S   S632      1.0  0.7936104659819213  0.7666666666666667  -0.07940000000000001  1.0000
  W   W316      1.0  0.7606029554684398  0.8  0.0  1.0000
  S   S633      1.0  0.7937989294332793  0.8166666666666667  0.07940000000000001  1.0000
  S   S634      1.0  0.7937989294332793  0.8166666666666667  -0.07940000000000001  1.0000
  W   W317      1.0  0.7610288388184896  0.85  0.0  1.0000
  S   S635      1.0  0.7941235241407579  0.8666666666666667  0.07940000000000001  1.0000
  S   S636      1.0  0.7941235241407579  0.8666666666666667  -0.07940000000000001  1.0000
  W   W318      1.0  0.7615216792945801  0.8999999999999999  0.0  1.0000
  S   S637      1.0  0.7945321037486223  0.9166666666666666  0.07940000000000001  1.0000
  S   S638      1.0  0.7945321037486223  0.9166666666666666  -0.07940000000000001  1.0000
  W   W319      1.0  0.7620228225361363  0.9500000000000001  0.0  1.0000
  S   S639      1.0  0.7949737608948313  0.9666666666666668  0.07940000000000001  1.0000
  S   S640      1.0  0.7949737608948313  0.9666666666666668  -0.07940000000000001  1.0000
  W   W320      1.0  0.7996053004701972  0.0  0.0  1.0000
  S   S641      1.0  0.8335273155006562  0.016666666666666666  0.07940000000000001  1.0000
  S   S642      1.0  0.8335273155006562  0.016666666666666666  -0.07940000000000001  1.0000
  W   W321      1.0  0.8000491561660548  0.05  0.0  1.0000
  S   S643      1.0  0.8339983413232147  0.06666666666666667  0.07940000000000001  1.0000
  S   S644      1.0  0.8339983413232147  0.06666666666666667  -0.07940000000000001  1.0000
  W   W322      1.0  0.8005553278585997  0.1  0.0  1.0000
  S   S645      1.0  0.834531018745892  0.11666666666666667  0.07940000000000001  1.0000
  S   S646      1.0  0.834531018745892  0.11666666666666667  -0.07940000000000001  1.0000
  W   W323      1.0  0.8011351626916445  0.15  0.0  1.0000
  S   S647      1.0  0.8351349770326127  0.16666666666666666  0.07940000000000001  1.0000
  S   S648      1.0  0.8351349770326127  0.16666666666666666  -0.07940000000000001  1.0000
  W   W324      1.0  0.8018016436992793  0.2  0.0  1.0000
  S   S649      1.0  0.835820430594883  0.21666666666666667  0.07940000000000001  1.0000
  S   S650      1.0  0.835820430594883  0.21666666666666667  -0.07940000000000001  1.0000
  W   W325      1.0  0.8025687252828426  0.25  0.0  1.0000
  S   S651      1.0  0.8365970281154189  0.26666666666666666  0.07940000000000001  1.0000
  S   S652      1.0  0.8365970281154189  0.26666666666666666  -0.07940000000000001  1.0000
  W   W326      1.0  0.8034494240331014  0.3  0.0  1.0000
  S   S653      1.0  0.8374714061765939  0.3166666666666666  0.07940000000000001  1.0000
  S   S654      1.0  0.8374714061765939  0.3166666666666666  -0.07940000000000001  1.0000
  W   W327      1.0  0.8044514362004103  0.35000000000000003  0.0  1.0000
  S   S655      1.0  0.8384425414036449  0.36666666666666664  0.07940000000000001  1.0000
  S   S656      1.0  0.8384425414036449  0.36666666666666664  -0.07940000000000001  1.0000
  W   W328      1.0  0.8055683843783233  0.4  0.0  1.0000
  S   S657      1.0  0.8394939037533609  0.41666666666666663  0.07940000000000001  1.0000
  S   S658      1.0  0.8394939037533609  0.41666666666666663  -0.07940000000000001  1.0000
  W   W329      1.0  0.8067649090350832  0.44999999999999996  0.0  1.0000
  S   S659      1.0  0.8405824502658021  0.4666666666666666  0.07940000000000001  1.0000
  S   S660      1.0  0.8405824502658021  0.4666666666666666  -0.07940000000000001  1.0000
  W   W330      1.0  0.8079577471545947  0.5  0.0  1.0000
  S   S661      1.0  0.8416285995068887  0.5166666666666666  0.07940000000000001  1.0000
  S   S662      1.0  0.8416285995068887  0.5166666666666666  -0.07940000000000001  1.0000
  W   W331      1.0  0.8090080370644004  0.5499999999999999  0.0  1.0000
  S   S663      1.0  0.8425198467114527  0.5666666666666667  0.07940000000000001  1.0000
  S   S664      1.0  0.8425198467114527  0.5666666666666667  -0.07940000000000001  1.0000
  W   W332      1.0  0.8097588265756518  0.6  0.0  1.0000
  S   S665      1.0  0.8431465341421002  0.6166666666666667  0.07940000000000001  1.0000
  S   S666      1.0  0.8431465341421002  0.6166666666666667  -0.07940000000000001  1.0000
  W   W333      1.0  0.8101349770326127  0.6499999999999999  0.0  1.0000
  S   S667      1.0  0.8434683103659459  0.6666666666666666  0.07940000000000001  1.0000
  S   S668      1.0  0.8434683103659459  0.6666666666666666  -0.07940000000000001  1.0000
  W   W334      1.0  0.8102269222340523  0.7000000000000001  0.0  1.0000
  S   S669      1.0  0.8435583075464542  0.7166666666666668  0.07940000000000001  1.0000
  S   S670      1.0  0.8435583075464542  0.7166666666666668  -0.07940000000000001  1.0000
  W   W335      1.0  0.8102351109163611  0.75  0.0  1.0000
  S   S671      1.0  0.8435641582538757  0.7666666666666667  0.07940000000000001  1.0000
  S   S672      1.0  0.8435641582538757  0.7666666666666667  -0.07940000000000001  1.0000
  W   W336      1.0  0.8103227701219821  0.8  0.0  1.0000
  S   S673      1.0  0.8436162167118219  0.8166666666666667  0.07940000000000001  1.0000
  S   S674      1.0  0.8436162167118219  0.8166666666666667  -0.07940000000000001  1.0000
  W   W337      1.0  0.8105440228330836  0.85  0.0  1.0000
  S   S675      1.0  0.8437732794970322  0.8666666666666667  0.07940000000000001  1.0000
  S   S676      1.0  0.8437732794970322  0.8666666666666667  -0.07940000000000001  1.0000
  W   W338      1.0  0.8108757297087315  0.8999999999999999  0.0  1.0000
  S   S677      1.0  0.8440322539122763  0.9166666666666666  0.07940000000000001  1.0000
  S   S678      1.0  0.8440322539122763  0.9166666666666666  -0.07940000000000001  1.0000
  W   W339      1.0  0.8112712337764753  0.9500000000000001  0.0  1.0000
  S   S679      1.0  0.844362172151823  0.9666666666666668  0.07940000000000001  1.0000
  S   S680      1.0  0.844362172151823  0.9666666666666668  -0.07940000000000001  1.0000
  W   W340      1.0  0.8502578349402274  0.0  0.0  1.0000
  S   S681      1.0  0.8841309831439558  0.016666666666666666  0.07940000000000001  1.0000
  S   S682      1.0  0.8841309831439558  0.016666666666666666  -0.07940000000000001  1.0000
  W   W341      1.0  0.8507129385807672  0.05  0.0  1.0000
  S   S683      1.0  0.8846055380253413  0.06666666666666667  0.07940000000000001  1.0000
  S   S684      1.0  0.8846055380253413  0.06666666666666667  -0.07940000000000001  1.0000
  W   W342      1.0  0.8512247492380931  0.1  0.0  1.0000
  S   S685      1.0  0.8851349770326127  0.11666666666666667  0.07940000000000001  1.0000
  S   S686      1.0  0.8851349770326127  0.11666666666666667  -0.07940000000000001  1.0000
  W   W343      1.0  0.8518016436992794  0.15  0.0  1.0000
  S   S687      1.0  0.8857260448001846  0.16666666666666666  0.07940000000000001  1.0000
  S   S688      1.0  0.8857260448001846  0.16666666666666666  -0.07940000000000001  1.0000
  W   W344      1.0  0.8524524598503107  0.2  0.0  1.0000
  S   S689      1.0  0.8863851916802304  0.21666666666666667  0.07940000000000001  1.0000
  S   S690      1.0  0.8863851916802304  0.21666666666666667  -0.07940000000000001  1.0000
  W   W345      1.0  0.8531855862059415  0.25  0.0  1.0000
  S   S691      1.0  0.8871174343174912  0.26666666666666666  0.07940000000000001  1.0000
  S   S692      1.0  0.8871174343174912  0.26666666666666666  -0.07940000000000001  1.0000
  W   W346      1.0  0.8540070904541067  0.3  0.0  1.0000
  S   S693      1.0  0.8879243284346701  0.3166666666666666  0.07940000000000001  1.0000
  S   S694      1.0  0.8879243284346701  0.3166666666666666  -0.07940000000000001  1.0000
  W   W347      1.0  0.8549172452765527  0.35000000000000003  0.0  1.0000
  S   S695      1.0  0.8888006486807575  0.36666666666666664  0.07940000000000001  1.0000
  S   S696      1.0  0.8888006486807575  0.36666666666666664  -0.07940000000000001  1.0000
  W   W348      1.0  0.855904715001193  0.4  0.0  1.0000
  S   S697      1.0  0.8897295212006185  0.41666666666666663  0.07940000000000001  1.0000
  S   S698      1.0  0.8897295212006185  0.41666666666666663  -0.07940000000000001  1.0000
  W   W349      1.0  0.856938210017188  0.44999999999999996  0.0  1.0000
  S   S699      1.0  0.8906765416506482  0.4666666666666666  0.07940000000000001  1.0000
  S   S700      1.0  0.8906765416506482  0.4666666666666666  -0.07940000000000001  1.0000
  W   W350      1.0  0.8579577471545947  0.5  0.0  1.0000
  S   S701      1.0  0.8915854513814956  0.5166666666666666  0.07940000000000001  1.0000
  S   S702      1.0  0.8915854513814956  0.5166666666666666  -0.07940000000000001  1.0000
  W   W351      1.0  0.8588729894431321  0.5499999999999999  0.0  1.0000
  S   S703      1.0  0.8923812513105606  0.5666666666666667  0.07940000000000001  1.0000
  S   S704      1.0  0.8923812513105606  0.5666666666666667  -0.07940000000000001  1.0000
  W   W352      1.0  0.8595820174458633  0.6  0.0  1.0000
  S   S705      1.0  0.8929883060458591  0.6166666666666667  0.07940000000000001  1.0000
  S   S706      1.0  0.8929883060458591  0.6166666666666667  -0.07940000000000001  1.0000
  W   W353      1.0  0.8600178009908958  0.6499999999999999  0.0  1.0000
  S   S707      1.0  0.8933637884792306  0.6666666666666666  0.07940000000000001  1.0000
  S   S708      1.0  0.8933637884792306  0.6666666666666666  -0.07940000000000001  1.0000
  W   W354      1.0  0.8601983845124741  0.7000000000000001  0.0  1.0000
  S   S709      1.0  0.8935279577386319  0.7166666666666668  0.07940000000000001  1.0000
  S   S710      1.0  0.8935279577386319  0.7166666666666668  -0.07940000000000001  1.0000
  W   W355      1.0  0.8602288358219816  0.75  0.0  1.0000
  S   S711      1.0  0.8935618773242091  0.7666666666666667  0.07940000000000001  1.0000
  S   S712      1.0  0.8935618773242091  0.7666666666666667  -0.07940000000000001  1.0000
  W   W356      1.0  0.8602403153263676  0.8  0.0  1.0000
  S   S713      1.0  0.8935672385660426  0.8166666666666667  0.07940000000000001  1.0000
  S   S714      1.0  0.8935672385660426  0.8166666666666667  -0.07940000000000001  1.0000
  W   W357      1.0  0.860322770121982  0.85  0.0  1.0000
  S   S715      1.0  0.8936207124987315  0.8666666666666667  0.07940000000000001  1.0000
  S   S716      1.0  0.8936207124987315  0.8666666666666667  -0.07940000000000001  1.0000
  W   W358      1.0  0.8605046496641681  0.8999999999999999  0.0  1.0000
  S   S717      1.0  0.8937552441608209  0.9166666666666666  0.07940000000000001  1.0000
  S   S718      1.0  0.8937552441608209  0.9166666666666666  -0.07940000000000001  1.0000
  W   W359      1.0  0.8607723756099056  0.9500000000000001  0.0  1.0000
  S   S719      1.0  0.8939686889739664  0.9666666666666668  0.07940000000000001  1.0000
  S   S720      1.0  0.8939686889739664  0.9666666666666668  -0.07940000000000001  1.0000
  W   W360      1.0  0.9008352604677151  0.0  0.0  1.0000
  S   S721      1.0  0.9346636992582049  0.016666666666666666  0.07940000000000001  1.0000
  S   S722      1.0  0.9346636992582049  0.016666666666666666  -0.07940000000000001  1.0000
  W   W361      1.0  0.9012931225726969  0.05  0.0  1.0000
  S   S723      1.0  0.9351349770326125  0.06666666666666667  0.07940000000000001  1.0000
  S   S724      1.0  0.9351349770326125  0.06666666666666667  -0.07940000000000001  1.0000
  W   W362      1.0  0.9018016436992793  0.1  0.0  1.0000
  S   S725      1.0  0.9356544854069957  0.11666666666666667  0.07940000000000001  1.0000
  S   S726      1.0  0.9356544854069957  0.11666666666666667  -0.07940000000000001  1.0000
  W   W363      1.0  0.9023667663451482  0.15  0.0  1.0000
  S   S727      1.0  0.936226738227981  0.16666666666666666  0.07940000000000001  1.0000
  S   S728      1.0  0.936226738227981  0.16666666666666666  -0.07940000000000001  1.0000
  W   W364      1.0  0.9029941909781037  0.2  0.0  1.0000
  S   S729      1.0  0.9368554936109751  0.21666666666666667  0.07940000000000001  1.0000
  S   S730      1.0  0.9368554936109751  0.21666666666666667  -0.07940000000000001  1.0000
  W   W365      1.0  0.9036884713962263  0.25  0.0  1.0000
  S   S731      1.0  0.9375427646464981  0.26666666666666666  0.07940000000000001  1.0000
  S   S732      1.0  0.9375427646464981  0.26666666666666666  -0.07940000000000001  1.0000
  W   W366      1.0  0.9044514362004104  0.3  0.0  1.0000
  S   S733      1.0  0.9382872541642322  0.3166666666666666  0.07940000000000001  1.0000
  S   S734      1.0  0.9382872541642322  0.3166666666666666  -0.07940000000000001  1.0000
  W   W367      1.0  0.9052796330237964  0.35000000000000003  0.0  1.0000
  S   S735      1.0  0.9390820577004187  0.36666666666666664  0.07940000000000001  1.0000
  S   S736      1.0  0.9390820577004187  0.36666666666666664  -0.07940000000000001  1.0000
  W   W368      1.0  0.9061605704200275  0.4  0.0  1.0000
  S   S737      1.0  0.9399116503513376  0.41666666666666663  0.07940000000000001  1.0000
  S   S738      1.0  0.9399116503513376  0.41666666666666663  -0.07940000000000001  1.0000
  W   W369      1.0  0.9070679998055095  0.44999999999999996  0.0  1.0000
  S   S739      1.0  0.9407486755883709  0.4666666666666666  0.07940000000000001  1.0000
  S   S740      1.0  0.9407486755883709  0.4666666666666666  -0.07940000000000001  1.0000
  W   W370      1.0  0.9079577471545947  0.5  0.0  1.0000
  S   S741      1.0  0.9415520680048629  0.5166666666666666  0.07940000000000001  1.0000
  S   S742      1.0  0.9415520680048629  0.5166666666666666  -0.07940000000000001  1.0000
  W   W371      1.0  0.9087678698931962  0.5499999999999999  0.0  1.0000
  S   S743      1.0  0.9422694011933477  0.5666666666666667  0.07940000000000001  1.0000
  S   S744      1.0  0.9422694011933477  0.5666666666666667  -0.07940000000000001  1.0000
  W   W372      1.0  0.9094289083361051  0.6  0.0  1.0000
  S   S745      1.0  0.9428468283885272  0.6166666666666667  0.07940000000000001  1.0000
  S   S746      1.0  0.9428468283885272  0.6166666666666667  -0.07940000000000001  1.0000
  W   W373      1.0  0.9098874698413905  0.6499999999999999  0.0  1.0000
  S   S747      1.0  0.9432470576548446  0.6666666666666666  0.07940000000000001  1.0000
  S   S748      1.0  0.9432470576548446  0.6666666666666666  -0.07940000000000001  1.0000
  W   W374      1.0  0.9101349770326125  0.7000000000000001  0.0  1.0000
  S   S749      1.0  0.943468310365946  0.7166666666666668  0.07940000000000001  1.0000
  S   S750      1.0  0.943468310365946  0.7166666666666668  -0.07940000000000001  1.0000
  W   W375      1.0  0.91022008122068  0.75  0.0  1.0000
  S   S751      1.0  0.9435507651615604  0.7666666666666667  0.07940000000000001  1.0000
  S   S752      1.0  0.9435507651615604  0.7666666666666667  -0.07940000000000001  1.0000
  W   W376      1.0  0.9102289113326131  0.8  0.0  1.0000
  S   S753      1.0  0.9435622068966514  0.8166666666666667  0.07940000000000001  1.0000
  S   S754      1.0  0.9435622068966514  0.8166666666666667  -0.07940000000000001  1.0000
  W   W377      1.0  0.9102455977791983  0.85  0.0  1.0000
  S   S755      1.0  0.943570999267248  0.8666666666666667  0.07940000000000001  1.0000
  S   S756      1.0  0.943570999267248  0.8666666666666667  -0.07940000000000001  1.0000
  W   W378      1.0  0.9103227701219819  0.8999999999999999  0.0  1.0000
  S   S757      1.0  0.9436243137250911  0.9166666666666666  0.07940000000000001  1.0000
  S   S758      1.0  0.9436243137250911  0.9166666666666666  -0.07940000000000001  1.0000
  W   W379      1.0  0.9104766983848546  0.9500000000000001  0.0  1.0000
  S   S759      1.0  0.9437419163050186  0.9666666666666668  0.07940000000000001  1.0000
  S   S760      1.0  0.9437419163050186  0.9666666666666668  -0.07940000000000001  1.0000
  W   W380      1.0  0.9513470154056177  0.0  0.0  1.0000
  S   S761      1.0  0.9851349770326128  0.016666666666666666  0.07940000000000001  1.0000
  S   S762      1.0  0.9851349770326128  0.016666666666666666  -0.07940000000000001  1.0000
  W   W381      1.0  0.9518016436992793  0.05  0.0  1.0000
  S   S763      1.0  0.9855983706453746  0.06666666666666667  0.07940000000000001  1.0000
  S   S764      1.0  0.9855983706453746  0.06666666666666667  -0.07940000000000001  1.0000
  W   W382      1.0  0.9523009969143934  0.1  0.0  1.0000
  S   S765      1.0  0.9861038115082156  0.11666666666666667  0.07940000000000001  1.0000
  S   S766      1.0  0.9861038115082156  0.11666666666666667  -0.07940000000000001  1.0000
  W   W383      1.0  0.9528491169672496  0.15  0.0  1.0000
  S   S767      1.0  0.9866541463186164  0.16666666666666666  0.07940000000000001  1.0000
  S   S768      1.0  0.9866541463186164  0.16666666666666666  -0.07940000000000001  1.0000
  W   W384      1.0  0.9534494240331014  0.2  0.0  1.0000
  S   S769      1.0  0.9872512645479957  0.21666666666666667  0.07940000000000001  1.0000
  S   S770      1.0  0.9872512645479957  0.21666666666666667  -0.07940000000000001  1.0000
  W   W385      1.0  0.9541039217043997  0.25  0.0  1.0000
  S   S771      1.0  0.9878952923777166  0.26666666666666666  0.07940000000000001  1.0000
  S   S772      1.0  0.9878952923777166  0.26666666666666666  -0.07940000000000001  1.0000
  W   W386      1.0  0.95481195351307  0.3  0.0  1.0000
  S   S773      1.0  0.9885834250735249  0.3166666666666666  0.07940000000000001  1.0000
  S   S774      1.0  0.9885834250735249  0.3166666666666666  -0.07940000000000001  1.0000
  W   W387      1.0  0.9555683843783235  0.35000000000000003  0.0  1.0000
  S   S775      1.0  0.9893083568178512  0.36666666666666664  0.07940000000000001  1.0000
  S   S776      1.0  0.9893083568178512  0.36666666666666664  -0.07940000000000001  1.0000
  W   W388      1.0  0.9563611861923914  0.4  0.0  1.0000
  S   S777      1.0  0.9900564028513901  0.41666666666666663  0.07940000000000001  1.0000
  S   S778      1.0  0.9900564028513901  0.41666666666666663  -0.07940000000000001  1.0000
  W   W389      1.0  0.9571687281176676  0.44999999999999996  0.0  1.0000
  S   S779      1.0  0.9908057115147185  0.4666666666666666  0.07940000000000001  1.0000
  S   S780      1.0  0.9908057115147185  0.4666666666666666  -0.07940000000000001  1.0000
  W   W390      1.0  0.9579577471545948  0.5  0.0  1.0000
  S   S781      1.0  0.9915254759267577  0.5166666666666666  0.07940000000000001  1.0000
  S   S782      1.0  0.9915254759267577  0.5166666666666666  -0.07940000000000001  1.0000
  W   W391      1.0  0.9586839791511883  0.5499999999999999  0.0  1.0000
  S   S783      1.0  0.9921776421295501  0.5666666666666667  0.07940000000000001  1.0000
  S   S784      1.0  0.9921776421295501  0.5666666666666667  -0.07940000000000001  1.0000
  W   W392      1.0  0.9592981452344506  0.6  0.0  1.0000
  S   S785      1.0  0.9927227300579327  0.6166666666666667  0.07940000000000001  1.0000
  S   S786      1.0  0.9927227300579327  0.6166666666666667  -0.07940000000000001  1.0000
  W   W393      1.0  0.9597588265756519  0.6499999999999999  0.0  1.0000
  S   S787      1.0  0.993130076870774  0.6666666666666666  0.07940000000000001  1.0000
  S   S788      1.0  0.993130076870774  0.6666666666666666  -0.07940000000000001  1.0000
  W   W394      1.0  0.9600491641829094  0.7000000000000001  0.0  1.0000
  S   S789      1.0  0.9933895924055024  0.7166666666666668  0.07940000000000001  1.0000
  S   S790      1.0  0.9933895924055024  0.7166666666666668  -0.07940000000000001  1.0000
  W   W395      1.0  0.9601881761644694  0.75  0.0  1.0000
  S   S791      1.0  0.9935187424952716  0.7666666666666667  0.07940000000000001  1.0000
  S   S792      1.0  0.9935187424952716  0.7666666666666667  -0.07940000000000001  1.0000
  W   W396      1.0  0.9602269222340526  0.8  0.0  1.0000
  S   S793      1.0  0.9935590102514708  0.8166666666666667  0.07940000000000001  1.0000
  S   S794      1.0  0.9935590102514708  0.8166666666666667  -0.07940000000000001  1.0000
  W   W397      1.0  0.9602294816708312  0.85  0.0  1.0000
  S   S795      1.0  0.9935623284069348  0.8666666666666667  0.07940000000000001  1.0000
  S   S796      1.0  0.9935623284069348  0.8666666666666667  -0.07940000000000001  1.0000
  W   W398      1.0  0.9602505995353551  0.8999999999999999  0.0  1.0000
  S   S797      1.0  0.9935749818090975  0.9166666666666666  0.07940000000000001  1.0000
  S   S798      1.0  0.9935749818090975  0.9166666666666666  -0.07940000000000001  1.0000
  W   W399      1.0  0.960322770121982  0.9500000000000001  0.0  1.0000
  S   S799      1.0  0.9936272586809956  0.9666666666666668  0.07940000000000001  1.0000
  S   S800      1.0  0.9936272586809956  0.9666666666666668  -0.07940000000000001  1.0000
